85
CoH2L134.xyz
 C	    -0.28932500	    -2.03105200	     0.80335000
 C	    -0.18464900	    -2.09142700	    -0.68690600
 C	    -0.96861500	    -1.24691100	    -1.46170400
 C	    -1.93946000	    -0.34881600	    -0.80329700
 N	    -1.66750100	     0.65122900	    -0.04857800
 C	    -2.94922500	     1.26880300	     0.37333500
 C	    -3.08836000	     2.68686000	    -0.20626500
 C	    -4.32228400	     3.39751400	     0.37188100
 C	    -4.43287200	     4.83709100	    -0.14793900
 C	    -4.43334800	     4.88151300	    -1.68137700
 C	    -3.20421100	     4.16632600	    -2.25646000
 C	    -3.10268400	     2.72421200	    -1.74231300
 C	    -3.99399600	     0.24080900	    -0.11405600
 O	    -3.23936900	    -0.63506100	    -1.00813400
 C	    -0.89064100	    -1.25743400	    -2.87692300
 C	    -0.00301100	    -2.09350100	    -3.50886100
 C	     0.81262100	    -2.98309600	    -2.76205500
 C	     0.71296400	    -2.99863300	    -1.33115500
 C	     1.50356400	    -3.92974400	    -0.60372200
 C	     2.36470700	    -4.78296700	    -1.25537400
 C	     2.48026800	    -4.75001600	    -2.66666900
 C	     1.71824800	    -3.87119000	    -3.40201700
 C	     0.68242400	    -1.36483700	     1.53357200
 C	     1.82071300	    -0.74723500	     0.81547100
 N	     1.82819200	     0.43495100	     0.31424300
 C	     3.17153100	     0.66738200	    -0.28574700
 C	     3.78064700	    -0.75335400	    -0.26699100
 O	     2.92392700	    -1.49386800	     0.65663600
 C	     0.57878700	    -1.21043200	     2.93789600
 C	    -0.51144100	    -1.71599200	     3.60342800
 C	    -1.53598300	    -2.40220500	     2.90063600
 C	    -1.42455300	    -2.57447900	     1.48116200
 C	    -2.45830100	    -3.26922000	     0.79541700
 C	    -3.55317800	    -3.75291100	     1.47635100
 C	    -3.66753900	    -3.57256700	     2.87636000
 C	    -2.67770200	    -2.91600000	     3.57162700
 H	    -2.94983100	     1.33750700	     1.46470600
 H	    -2.19643600	     3.23529200	     0.12960000
 H	    -5.23060800	     2.84278500	     0.09209200
 H	    -4.27340100	     3.39245600	     1.46866900
 H	    -3.57951300	     5.41879000	     0.22906900
 H	    -5.33966600	     5.31124300	     0.24885200
 H	    -5.34439900	     4.39149500	    -2.05663200
 H	    -4.46763300	     5.92141100	    -2.03064700
 H	    -3.23818000	     4.17126100	    -3.35343300
 H	    -2.29594900	     4.71248700	    -1.96487700
 H	    -2.19566800	     2.25180600	    -2.13519200
 H	    -3.96088300	     2.15084600	    -2.12255500
 H	    -4.81953000	     0.66624900	    -0.68445300
 H	    -4.38426500	    -0.38551900	     0.69186900
 H	    -1.52359400	    -0.58535000	    -3.44751600
 H	     0.07741400	    -2.09127400	    -4.59224200
 H	     1.42316800	    -3.95848400	     0.47657500
 H	     2.96143700	    -5.48813200	    -0.68402100
 H	     3.16819300	    -5.42636000	    -3.16593000
 H	     1.79160500	    -3.84521800	    -4.48598100
 H	     3.03101200	     1.02843300	    -1.30822500
 H	     3.72650300	    -1.26176400	    -1.23308800
 H	     4.79635900	    -0.80414500	     0.12363100
 H	     1.35617100	    -0.67200300	     3.47050100
 H	    -0.60645200	    -1.58856500	     4.67806200
 H	    -2.37811800	    -3.41381800	    -0.27585500
 H	    -4.33500100	    -4.27966300	     0.93685000
 H	    -4.53814600	    -3.95814900	     3.39911600
 H	    -2.75404100	    -2.77637000	     4.64664700
 C	     4.00234300	     1.69260900	     0.50808100
 C	     5.36577400	     1.91570100	    -0.17412300
 C	     3.28570300	     3.03987900	     0.68120700
 H	     4.17960900	     1.26438700	     1.50799700
 C	     6.23479700	     2.91401100	     0.60199700
 H	     5.18786500	     2.30055800	    -1.18940100
 H	     5.90687600	     0.96837700	    -0.28768800
 C	     4.14537000	     4.04181600	     1.46301800
 H	     3.05808500	     3.45049600	    -0.31216200
 H	     2.32706400	     2.90033600	     1.19132900
 C	     5.51188900	     4.25136000	     0.80042200
 H	     7.18593900	     3.06633300	     0.07614900
 H	     6.48223000	     2.48629100	     1.58462100
 H	     3.61232200	     4.99680800	     1.55051700
 H	     4.29269500	     3.66804100	     2.48716800
 H	     6.12911900	     4.93272600	     1.40000700
 H	     5.36774000	     4.73172200	    -0.17847200
 Co	     0.15558500	     1.73447700	     0.28507700
 H	    -0.06132100	     2.43522900	     1.80741300
 H	     0.36328900	     2.72754800	    -1.06537100

