61
CoH2L17.xyz
 C	     4.07787900	     2.89588200	     0.57846800
 C	     2.68253000	     3.33528000	     0.12457100
 C	     2.44603700	     4.80885700	     0.48282100
 C	     1.58565800	     2.46171900	     0.74916600
 C	     0.14196500	     2.87325100	     0.36103100
 N	    -0.52119400	     1.56696600	     0.13013100
 C	    -1.75538100	     1.52820400	    -0.58148400
 C	    -2.90398000	     2.01586700	     0.04817100
 C	    -4.12147500	     2.00396400	    -0.62947700
 C	    -4.19628400	     1.50123700	    -1.93105000
 C	    -3.04359900	     1.02605300	    -2.56020800
 C	    -1.81796300	     1.05077700	    -1.89465500
 C	     0.46612900	     0.62643700	     0.07559300
 C	     0.29679400	    -0.80902300	    -0.27845400
 N	     1.35203000	    -1.45502100	    -0.67562900
 C	     0.95176100	    -2.83908500	    -1.01600700
 C	     1.68033800	    -3.89589100	    -0.16099100
 C	     1.52585700	    -3.63956500	     1.34212500
 C	     3.15432100	    -4.00721800	    -0.56510200
 C	    -0.59581800	    -2.84353800	    -0.85214300
 N	    -0.87119200	    -1.51017100	    -0.27252900
 C	    -2.00994700	    -1.26503800	     0.53335000
 C	    -3.27845200	    -1.55181600	     0.01694700
 C	    -4.40965200	    -1.31935200	     0.79601300
 C	    -4.28322500	    -0.79626700	     2.08565000
 C	    -3.01412200	    -0.52609100	     2.60193100
 C	    -1.87475500	    -0.77270300	     1.83691400
 N	     1.66600300	     1.03609700	     0.35960400
 H	     4.16886700	     2.95852200	     1.67070400
 H	     4.30539900	     1.86858200	     0.27689300
 H	     4.84307400	     3.54668200	     0.13936000
 H	     2.60995400	     3.21955200	    -0.96605600
 H	     1.48225200	     5.17846800	     0.11487500
 H	     2.47084500	     4.95374800	     1.57084700
 H	     3.22955300	     5.43739700	     0.04520700
 H	     1.70073300	     2.49813700	     1.84148200
 H	     0.11231200	     3.45097800	    -0.57083200
 H	    -0.37007500	     3.43550600	     1.14320400
 H	    -2.83987800	     2.37471400	     1.06989800
 H	    -5.01459200	     2.37340900	    -0.13433500
 H	    -5.14792500	     1.48370200	    -2.45417200
 H	    -3.09273200	     0.64700200	    -3.57693600
 H	    -0.91669300	     0.70650700	    -2.39156200
 H	     1.21408100	    -3.00907400	    -2.06457000
 H	     1.18770900	    -4.84905900	    -0.40246200
 H	     1.96026800	    -4.46687000	     1.91461600
 H	     2.04600900	    -2.72182600	     1.63666500
 H	     0.47433400	    -3.54784800	     1.64061800
 H	     3.65637700	    -4.79044800	     0.01497000
 H	     3.68656200	    -3.06651400	    -0.38308600
 H	     3.25513200	    -4.25566400	    -1.62865100
 H	    -0.95373400	    -3.62032700	    -0.17175900
 H	    -1.11166400	    -2.94984100	    -1.81051200
 H	    -3.37212000	    -1.92793800	    -0.99619900
 H	    -5.39305800	    -1.53315800	     0.38767000
 H	    -5.16797900	    -0.60725800	     2.68641100
 H	    -2.90584300	    -0.13694800	     3.61026000
 H	    -0.88762000	    -0.59350200	     2.24996200
 Co	     3.15089400	    -0.36539700	    -0.27775300
 H	     4.14561600	    -0.91040400	     0.95079200
 H	     3.94349200	     0.08275400	    -1.68409300

