67
CoH2L65.xyz
 C	    -0.23387300	    -4.05683000	     5.12837200
 O	    -1.20092200	    -3.47295100	     4.25404000
 C	    -0.75075900	    -2.76821700	     3.19108800
 C	     0.59741800	    -2.56415100	     2.87882600
 C	     0.93616400	    -1.80625800	     1.75697300
 C	    -0.03116100	    -1.25421200	     0.91391000
 P	     0.42354100	    -0.25909900	    -0.55460100
 C	     2.24478500	    -0.37783000	    -0.64230700
 C	     2.79137400	    -1.43386600	    -1.38652700
 C	     4.17268300	    -1.58482000	    -1.47988100
 C	     5.01232000	    -0.66951600	    -0.84065400
 C	     6.50195700	    -0.85293300	    -0.89403000
 F	     6.95900400	    -1.54016000	     0.18289500
 F	     6.89558400	    -1.53993800	    -1.98843700
 F	     7.15930500	     0.32900100	    -0.90264400
 C	     4.47702300	     0.39217300	    -0.10603600
 C	     3.09550800	     0.53670200	    -0.00625100
 C	     0.09557200	     1.46888500	    -0.03850400
 C	    -0.13407200	     1.83609400	     1.29353400
 C	    -0.40250500	     3.16478700	     1.61910200
 C	    -0.44187200	     4.13083500	     0.61197500
 C	    -0.67926100	     5.57291000	     0.95710800
 F	     0.48466000	     6.26184700	     1.05714300
 F	    -1.32079100	     5.72043100	     2.13752200
 F	    -1.41917000	     6.20366200	     0.01669200
 C	    -0.21375800	     3.77496900	    -0.72105300
 C	     0.04682800	     2.44701600	    -1.04459400
 C	    -1.39479100	    -1.48162800	     1.23100500
 C	    -2.51555800	    -0.95535800	     0.42041100
 N	    -2.60054800	    -0.87830000	    -0.86508900
 C	    -3.97611700	    -0.43006000	    -1.21053700
 C	    -4.79640700	    -1.54429700	    -1.92013200
 C	    -6.20576500	    -0.99381700	    -2.20267600
 C	    -4.88487600	    -2.80568300	    -1.04698400
 C	    -4.13641700	    -1.89682100	    -3.26214000
 C	    -4.52996000	     0.00857700	     0.16150700
 O	    -3.58744000	    -0.55407300	     1.12262900
 C	    -1.73984000	    -2.21162700	     2.36655400
 H	     0.39805200	    -3.28916200	     5.59045500
 H	    -0.80655800	    -4.56998400	     5.90236900
 H	     0.39521900	    -4.78133300	     4.59767800
 H	     1.38521000	    -2.97754300	     3.49686000
 H	     1.98678800	    -1.64369400	     1.54397600
 H	     2.13550000	    -2.13645500	    -1.89234300
 H	     4.59248900	    -2.40186000	    -2.05631600
 H	     5.13436400	     1.10329400	     0.38319000
 H	     2.68318300	     1.36079000	     0.56608300
 H	    -0.10558700	     1.08973600	     2.08007400
 H	    -0.58215000	     3.44439100	     2.65143600
 H	    -0.25339400	     4.52683200	    -1.50237500
 H	     0.20286400	     2.16565300	    -2.08160200
 H	    -3.89922000	     0.42280100	    -1.88959000
 H	    -6.76345400	    -0.77566700	    -1.28500800
 H	    -6.15831500	    -0.07363400	    -2.79805900
 H	    -6.78638200	    -1.73012600	    -2.76994100
 H	    -3.89203200	    -3.22930800	    -0.86002500
 H	    -5.48219700	    -3.57133900	    -1.55496400
 H	    -5.36124500	    -2.60869500	    -0.07922600
 H	    -4.74569200	    -2.63594200	    -3.79616000
 H	    -3.13943000	    -2.32868900	    -3.12494000
 H	    -4.03970600	    -1.01244900	    -3.90179700
 H	    -5.51604500	    -0.38191800	     0.40810000
 H	    -4.51998600	     1.09293400	     0.29637800
 H	    -2.78090000	    -2.37106300	     2.62175600
 Co	    -1.04877200	    -1.06277400	    -2.29117200
 H	    -1.24864200	     0.08108100	    -3.48629900
 H	    -0.61342900	    -2.60669900	    -2.73365800

