49
CoH2L41.xyz
 C	    -1.98199100	    -0.28102500	     2.36517200
 P	    -1.47241100	    -0.38200900	     0.59917000
 C	    -0.58467100	     1.20843900	     0.29264000
 C	    -1.14762000	     2.43778000	     0.67109400
 C	    -0.55357500	     3.64472000	     0.30566800
 C	     0.61601500	     3.64025400	    -0.45579600
 C	     1.21448000	     2.42864900	    -0.79697600
 C	     0.64613500	     1.20559100	    -0.40763600
 P	     1.55113700	    -0.37998800	    -0.66134900
 C	     2.35686100	    -0.20491000	    -2.30633500
 C	     2.94690200	    -0.32184900	     0.61316600
 C	     3.87653700	     0.88743800	     0.46465300
 C	     2.28877000	    -0.30408700	     2.00284400
 C	     3.74781700	    -1.62347400	     0.43212000
 C	    -3.06425500	    -0.27119400	    -0.41341500
 C	    -2.65484700	    -0.06169800	    -1.88042800
 C	    -3.75421100	    -1.63862100	    -0.25367000
 C	    -4.02395100	     0.84211600	     0.02312000
 H	    -1.08087100	    -0.31977800	     2.98522000
 H	    -2.59922800	    -1.15173600	     2.60669500
 H	    -2.53873700	     0.63015900	     2.60210100
 H	    -2.06187300	     2.45773200	     1.25326700
 H	    -1.00980900	     4.58413400	     0.60452000
 H	     1.07247000	     4.57584500	    -0.76607300
 H	     2.14086400	     2.43778000	    -1.36102300
 H	     2.92816200	    -1.11476500	    -2.51352000
 H	     3.02472700	     0.65785600	    -2.37916300
 H	     1.57226700	    -0.11621500	    -3.06462600
 H	     4.67803600	     0.81729200	     1.21166500
 H	     3.34937400	     1.83080100	     0.63478600
 H	     4.35103500	     0.92723400	    -0.52165500
 H	     1.70961000	     0.61200500	     2.16213300
 H	     1.62489600	    -1.16420200	     2.14319900
 H	     3.06622500	    -0.34867700	     2.77618700
 H	     3.10593300	    -2.50606500	     0.52581800
 H	     4.24789200	    -1.66072200	    -0.54222100
 H	     4.52340500	    -1.68479900	     1.20615600
 H	    -1.96954300	    -0.84531000	    -2.22188500
 H	    -3.54783600	    -0.09236000	    -2.51770100
 H	    -2.16962700	     0.90947400	    -2.02730600
 H	    -4.06216100	    -1.81953300	     0.78255500
 H	    -4.65631900	    -1.66599800	    -0.87805400
 H	    -3.09921100	    -2.45838000	    -0.56763600
 H	    -4.94984100	     0.76469700	    -0.56173400
 H	    -4.29638900	     0.76461100	     1.08111200
 H	    -3.60693000	     1.83641700	    -0.15811700
 Co	    -0.01501100	    -2.17577700	    -0.18318800
 H	     0.44236000	    -3.24864700	     0.99832000
 H	    -0.53484200	    -2.96168200	    -1.55158100

