60
CoH2L47.xyz
 Fe	     2.14680000	     0.34117600	     0.92645200
 N	     0.66598300	    -2.82265900	    -1.01455700
 P	    -1.06829500	     0.12230800	    -0.37772100
 C	     0.66933800	    -2.73980000	     0.48192700
 C	     0.90600800	    -1.36999600	     1.09312600
 C	     0.13362300	    -0.16046500	     0.94021600
 C	     0.46394600	     0.71656300	     2.02854100
 H	     0.07514700	     1.71527800	     2.17015400
 C	     1.43085500	     0.06661400	     2.84406200
 H	     1.91590400	     0.48868200	     3.71499400
 C	     1.71024800	    -1.20399200	     2.26170400
 H	     2.41577600	    -1.93574400	     2.63558300
 C	     2.59197200	     2.09995800	    -0.06868900
 H	     1.86803100	     2.88351100	    -0.24296300
 C	     2.84621200	     0.98753300	    -0.92716200
 H	     2.35477100	     0.79200300	    -1.87062400
 C	     3.83278100	     0.16545200	    -0.30133200
 H	     4.23029000	    -0.76366200	    -0.68648200
 C	     4.18201800	     0.76368400	     0.94446500
 H	     4.87727100	     0.36179400	     1.67047500
 C	     3.41858300	     1.96171300	     1.08561700
 H	     3.42494400	     2.62106500	     1.94428900
 C	    -2.69062900	     0.07207100	     0.47396600
 C	    -3.83726000	     0.36137800	    -0.28400600
 H	    -3.73860700	     0.63415100	    -1.33158900
 C	    -5.10055100	     0.30404800	     0.30112100
 H	    -5.98059500	     0.53483900	    -0.29266400
 C	    -5.23497500	    -0.05596600	     1.64570400
 H	    -6.22064100	    -0.10486100	     2.09997100
 C	    -4.10024100	    -0.35502700	     2.40079200
 H	    -4.19843700	    -0.63631200	     3.44579000
 C	    -2.83139900	    -0.29084000	     1.81929700
 H	    -1.95453700	    -0.52137000	     2.41465000
 C	    -0.88479000	     1.88918900	    -0.82211300
 C	    -1.30865100	     2.91656800	     0.03436700
 H	    -1.81326000	     2.67457900	     0.96490300
 C	    -1.08961400	     4.25007100	    -0.31002800
 H	    -1.41583700	     5.04116400	     0.35951000
 C	    -0.45909200	     4.56851900	    -1.51721400
 H	    -0.29232500	     5.60829600	    -1.78445400
 C	    -0.05716500	     3.55023500	    -2.38383900
 H	     0.42122600	     3.79340700	    -3.32840900
 C	    -0.27112800	     2.21391300	    -2.03941700
 H	     0.03970600	     1.41951600	    -2.71129800
 H	     1.49227500	    -3.38385600	     0.82900600
 C	    -0.64523300	    -3.27799700	     1.07335500
 H	    -1.51019400	    -2.78446300	     0.61792800
 H	    -0.74596000	    -4.35695000	     0.93351100
 H	    -0.66561200	    -3.07931600	     2.14852400
 C	     2.00104200	    -2.46908300	    -1.53481600
 H	     2.77619700	    -3.11101400	    -1.08841800
 H	     2.00952500	    -2.59242300	    -2.61872900
 H	     2.21219400	    -1.43400100	    -1.29347900
 C	     0.35826500	    -4.20297100	    -1.45358600
 H	     1.04545200	    -4.92668600	    -0.98893500
 H	    -0.66974500	    -4.46670800	    -1.21080800
 H	     0.47481500	    -4.25181600	    -2.53871600
 Co	    -0.77134500	    -1.56984200	    -2.08153100
 H	    -2.22792600	    -2.35228800	    -2.33239800
 H	    -0.03276800	    -0.99588900	    -3.46435900

