57
CoH2L28.xyz
 C	     6.43286600	     0.38693700	    -0.57034500
 C	     4.92082000	     0.66660300	    -0.52621100
 C	     4.50759600	     1.39654700	    -1.81486100
 C	     4.57609300	     1.53593500	     0.69185700
 C	     4.17969100	    -0.69173300	    -0.47482800
 C	     4.55448400	    -1.62364200	     0.70715200
 O	     3.26500000	    -2.04495700	     1.26576700
 C	     2.33569000	    -1.33039200	     0.62436700
 C	     0.92382700	    -1.48416700	     1.00615000
 C	     0.50037200	    -2.34820800	     2.00780000
 C	    -0.87236300	    -2.43781200	     2.24939200
 C	    -1.74917400	    -1.67451200	     1.48780200
 C	    -1.24421600	    -0.81149100	     0.50369500
 C	    -2.13020900	     0.08510600	    -0.34307700
 C	    -3.44222400	    -0.60820700	    -0.70091100
 C	    -3.44200300	    -1.55210800	    -1.73686100
 C	    -4.60664600	    -2.24226300	    -2.07151400
 C	    -5.79113500	    -1.99762300	    -1.37115400
 C	    -5.79996000	    -1.05799300	    -0.33916500
 C	    -4.63269000	    -0.36537500	    -0.00731500
 C	    -2.32726300	     1.46085000	     0.28580700
 C	    -2.53531500	     2.55589700	    -0.56327100
 C	    -2.76324700	     3.82837700	    -0.04230200
 C	    -2.78460300	     4.02581000	     1.34120700
 C	    -2.57654000	     2.94162400	     2.19412500
 C	    -2.34994000	     1.66610900	     1.66944900
 N	     0.07277500	    -0.72861400	     0.27679900
 N	     2.71732500	    -0.54769500	    -0.32224400
 H	     6.98546800	     1.32632800	    -0.68556900
 H	     6.69206300	    -0.26063100	    -1.41722300
 H	     6.79094400	    -0.09427400	     0.34765500
 H	     5.02516500	     2.36017600	    -1.88835900
 H	     3.42987400	     1.59302500	    -1.83701300
 H	     4.76501100	     0.80543300	    -2.70227300
 H	     4.84557100	     1.05004000	     1.63721800
 H	     5.12647400	     2.48238500	     0.64185800
 H	     3.50687900	     1.77063300	     0.72010600
 H	     4.35980400	    -1.20305100	    -1.42788400
 H	     5.08869300	    -2.52360000	     0.40311000
 H	     5.09972600	    -1.12449400	     1.51026300
 H	     1.21863300	    -2.93406200	     2.56872800
 H	    -1.24987600	    -3.10292400	     3.01943300
 H	    -2.81987300	    -1.73892300	     1.64141700
 H	    -1.57824600	     0.24013300	    -1.27731300
 H	    -2.52078900	    -1.74265000	    -2.28249700
 H	    -4.59078900	    -2.96692800	    -2.88113200
 H	    -6.70029400	    -2.53258300	    -1.63152800
 H	    -6.71736600	    -0.85715600	     0.20766100
 H	    -4.65135200	     0.37142000	     0.78953800
 H	    -2.51639600	     2.40410900	    -1.63932800
 H	    -2.91727300	     4.66670400	    -0.71612700
 H	    -2.95727200	     5.01776000	     1.74937200
 H	    -2.58802400	     3.08457500	     3.27128800
 H	    -2.18641100	     0.83375300	     2.34715700
 Co	     1.12165600	     0.52523900	    -1.18169800
 H	     1.03591900	     2.14941200	    -0.85309100
 H	     0.78486000	     0.09213800	    -2.75955100

