31
CoH2L148.xyz
 C	    -0.85201900	    -2.69958500	    -0.46096100
 N	    -0.60780700	    -1.40689900	     0.20327500
 C	     0.65970500	    -0.75234000	    -0.21299800
 C	     0.64516100	     0.73578800	     0.17854900
 C	     1.90170900	     1.46588500	    -0.35781900
 C	     3.13261400	     0.54695200	    -0.48961900
 C	     3.10442600	    -0.53723200	     0.58850200
 C	     1.89999300	    -1.47379500	     0.37209200
 N	    -0.61260500	     1.36703800	    -0.29516600
 C	    -0.83468700	     2.72532600	     0.23100600
 H	    -0.96626000	    -2.53002900	    -1.53505200
 H	    -0.03933700	    -3.41841500	    -0.29631400
 H	    -1.78318800	    -3.12263800	    -0.07548600
 H	    -0.54987000	    -1.57598900	     1.20960800
 H	     0.67994200	    -0.80611500	    -1.30874700
 H	     0.61790100	     0.79751400	     1.27375600
 H	     1.66062600	     1.90228800	    -1.33585300
 H	     2.13406100	     2.30182500	     0.31028400
 H	     3.14010800	     0.06716000	    -1.47729500
 H	     4.04931300	     1.14354600	    -0.42502500
 H	     3.03651300	    -0.05940700	     1.57488400
 H	     4.03220100	    -1.12007000	     0.58666700
 H	     1.61663000	    -1.93489300	     1.32718800
 H	     2.18293100	    -2.29097300	    -0.29983100
 H	    -0.56436400	     1.42566500	    -1.31481800
 H	    -0.91255900	     2.67379700	     1.32033300
 H	    -0.02982400	     3.42013500	    -0.03864500
 H	    -1.77906600	     3.10516600	    -0.16751400
 Co	    -2.21399000	     0.00663900	     0.07122400
 H	    -2.93641700	     0.20144400	     1.57820100
 H	    -3.21014400	    -0.14624600	    -1.27867100

