64
CoH2L106.xyz
 N	     0.23980300	     4.08620800	     1.13217200
 C	     0.15359500	     2.95650400	     0.84488900
 C	     0.05029000	     1.59252000	     0.49674200
 C	    -1.14742700	     0.88743400	     0.80813500
 N	    -1.48629800	    -0.32478000	     0.46178500
 C	    -2.75458900	    -0.65230900	     1.12726500
 C	    -3.71830300	    -1.42696900	     0.26346500
 C	    -3.82604400	    -1.17582500	    -1.10929600
 C	    -4.78441100	    -1.83965100	    -1.87406000
 C	    -5.64653600	    -2.76267300	    -1.27589200
 C	    -5.53857800	    -3.02432000	     0.09131000
 C	    -4.57549800	    -2.36076000	     0.85415100
 C	    -3.27223200	     0.75893000	     1.58990100
 C	    -4.33484200	     1.37633500	     0.71595500
 C	    -4.00828900	     2.18933200	    -0.37385200
 C	    -5.01107600	     2.66877400	    -1.21878500
 C	    -6.34703200	     2.33884800	    -0.98377500
 C	    -6.67846500	     1.53472300	     0.10985900
 C	    -5.67752400	     1.06207600	     0.95739200
 O	    -2.06145100	     1.55680200	     1.56273400
 C	     1.14875400	     0.95829800	    -0.14956600
 N	     1.23805800	    -0.28159500	    -0.55187000
 C	     2.60434800	    -0.51459800	    -1.03203700
 C	     3.42522500	    -1.35167100	    -0.07090600
 C	     3.18577600	    -1.32886600	     1.30709700
 C	     4.01700200	    -2.03158700	     2.18110500
 C	     5.09841100	    -2.76363300	     1.68689300
 C	     5.33877800	    -2.79669300	     0.31108300
 C	     4.50382600	    -2.09724600	    -0.56033600
 C	     3.13709700	     0.94973400	    -1.22135800
 C	     4.57484600	     1.19308000	    -0.86916800
 C	     5.54512300	     1.08441200	    -1.87071500
 C	     6.90029500	     1.20466700	    -1.55885500
 C	     7.29454900	     1.44601900	    -0.24139100
 C	     6.32718100	     1.56898600	     0.75955000
 C	     4.97384500	     1.44095300	     0.44906700
 O	     2.25217700	     1.72237500	    -0.36686800
 H	    -2.53536600	    -1.24762500	     2.02218000
 H	    -3.15904200	    -0.45741800	    -1.57214600
 H	    -4.85793800	    -1.63556900	    -2.93881000
 H	    -6.39320600	    -3.27888200	    -1.87338400
 H	    -6.19831200	    -3.74740400	     0.56351500
 H	    -4.48919400	    -2.56608000	     1.91870200
 H	    -3.60963700	     0.71894700	     2.62680200
 H	    -2.97291900	     2.45249800	    -0.56269100
 H	    -4.74537800	     3.29933400	    -2.06287400
 H	    -7.12572500	     2.70915600	    -1.64492600
 H	    -7.71619600	     1.27776400	     0.30429800
 H	    -5.93630400	     0.43048700	     1.80322500
 H	     2.57908100	    -1.01160200	    -2.00493600
 H	     2.34497500	    -0.76435700	     1.69708600
 H	     3.81796800	    -2.00644300	     3.24917500
 H	     5.74609500	    -3.30929400	     2.36782300
 H	     6.17395700	    -3.36914000	    -0.08371100
 H	     4.69531200	    -2.11998900	    -1.63022400
 H	     2.94080900	     1.26336600	    -2.25230900
 H	     5.23718100	     0.89865800	    -2.89693500
 H	     7.64521300	     1.11537300	    -2.34488000
 H	     8.34865900	     1.54284500	     0.00386900
 H	     6.62691600	     1.76207400	     1.78597100
 H	     4.22387700	     1.53336000	     1.22673900
 Co	    -0.26623100	    -1.68349400	    -0.51028200
 H	    -0.05616500	    -3.04730900	     0.47155300
 H	    -0.61174500	    -2.08959600	    -2.12022700

