118
CoH2L9.xyz
 C	    -1.52166800	    -5.04806700	    -0.18818700
 C	    -2.71882600	    -4.69589100	    -1.09764400
 C	    -3.54040400	    -5.97121800	    -1.37966900
 C	    -2.17656400	    -4.17358200	    -2.43779600
 C	    -3.59136500	    -3.65532800	    -0.37943400
 C	    -3.71205100	    -2.33874200	    -0.83406200
 C	    -4.49403500	    -1.39914800	    -0.14687700
 C	    -4.57287400	     0.00041600	    -0.63139400
 C	    -5.77110200	     0.73647600	    -0.55251600
 C	    -5.84880000	     2.05644500	    -1.00007800
 C	    -4.71176700	     2.66459200	    -1.53265700
 C	    -3.51925500	     1.94018200	    -1.61078300
 C	    -3.43687500	     0.62344200	    -1.17454000
 C	    -2.40322400	     2.78831100	    -2.16429600
 N	    -1.41119500	     3.16340500	    -1.13069000
 C	    -1.45065800	     4.44014200	    -0.98373200
 C	    -0.62918400	     5.28154400	    -0.08823800
 C	     0.34536900	     4.63481200	     0.81449100
 N	     0.61457000	     3.38253800	     0.92275300
 C	     1.62608400	     3.22032900	     1.99285500
 C	     2.91644300	     2.63373000	     1.48491600
 C	     3.14493800	     1.32060000	     1.09324600
 C	     4.41006700	     0.95186800	     0.60589600
 C	     4.66868300	    -0.44419100	     0.17582200
 C	     5.92228600	    -1.03805700	     0.38483100
 C	     6.17322300	    -2.35744700	    -0.00511500
 C	     7.53172000	    -3.04051400	     0.21432700
 C	     8.55988600	    -2.10263100	     0.86681500
 C	     7.34430000	    -4.26684400	     1.13272600
 C	     8.09583700	    -3.50252800	    -1.14629300
 C	     5.12979200	    -3.07349200	    -0.60782800
 C	     3.86452200	    -2.51456900	    -0.83481000
 C	     2.77213700	    -3.35784400	    -1.50883200
 C	     1.45579100	    -2.58332400	    -1.68028400
 C	     2.48828900	    -4.60786200	    -0.64849400
 C	     3.25729200	    -3.79986800	    -2.90593100
 C	     3.65135300	    -1.19093700	    -0.43793800
 C	     5.41583100	     1.93623200	     0.53968700
 C	     5.18237300	     3.25130300	     0.94586300
 C	     3.91894600	     3.60493100	     1.41971300
 C	     3.43199800	     4.94922700	     1.91467000
 C	     1.98253900	     4.68303800	     2.38011400
 O	     1.01458300	     5.47768700	     1.62610500
 C	    -0.24523000	     6.67830600	    -0.62436600
 C	    -1.28072600	     6.58173500	     0.42647200
 O	    -2.33008400	     5.11768000	    -1.74729700
 C	    -3.08055700	     4.13940800	    -2.53322800
 C	    -4.55655800	     4.06385900	    -2.08591900
 C	    -5.17781400	    -1.79558000	     1.01155500
 C	    -5.08054600	    -3.10358600	     1.49701800
 C	    -5.80134400	    -3.56771400	     2.77162900
 C	    -4.75792500	    -4.04963300	     3.80185300
 C	    -6.63114100	    -2.44579400	     3.41579000
 C	    -6.75227000	    -4.73289800	     2.42342700
 C	    -4.27956800	    -4.01026000	     0.78866900
 H	    -1.85512600	    -5.46018100	     0.77071900
 H	    -0.88000000	    -5.79516400	    -0.67165400
 H	    -0.91544900	    -4.15948500	     0.01976800
 H	    -3.90451100	    -6.43920200	    -0.45932000
 H	    -2.92230100	    -6.70993800	    -1.90439900
 H	    -4.40908700	    -5.74626200	    -2.00985400
 H	    -2.98743000	    -3.91659900	    -3.12963500
 H	    -1.54619000	    -3.28868500	    -2.30639100
 H	    -1.56439100	    -4.94824100	    -2.91390000
 H	    -3.20864200	    -2.02651900	    -1.74050900
 H	    -6.66053600	     0.25672400	    -0.15450100
 H	    -6.79036200	     2.59614400	    -0.93898000
 H	    -2.49177800	     0.09157600	    -1.21810500
 H	    -1.87192900	     2.31179800	    -2.99265300
 H	     1.17722600	     2.63657900	     2.80117800
 H	     2.35286800	     0.58298000	     1.17592400
 H	     6.69308000	    -0.46153200	     0.88150800
 H	     8.75046300	    -1.21638600	     0.25068000
 H	     9.51176700	    -2.63124900	     0.99219300
 H	     8.23434700	    -1.76693300	     1.85800100
 H	     6.94478500	    -3.96615200	     2.10846800
 H	     8.30493300	    -4.77018500	     1.29835100
 H	     6.65385900	    -4.99754200	     0.69828500
 H	     8.23925000	    -2.64931700	    -1.81980600
 H	     7.42793100	    -4.21376700	    -1.64343100
 H	     9.06650800	    -3.99478900	    -1.00873400
 H	     5.30860100	    -4.10007200	    -0.91030600
 H	     0.71783600	    -3.22801000	    -2.16849700
 H	     1.58287000	    -1.69079100	    -2.30262700
 H	     1.03797200	    -2.26534500	    -0.71860100
 H	     3.38164200	    -5.23003800	    -0.52683000
 H	     1.71225500	    -5.22412000	    -1.11846400
 H	     2.13721800	    -4.32306600	     0.35020500
 H	     4.17220600	    -4.39940600	    -2.84879000
 H	     2.48898100	    -4.40670000	    -3.40098500
 H	     3.46399200	    -2.92970400	    -3.54008600
 H	     2.69700500	    -0.71283300	    -0.62231700
 H	     6.39185600	     1.66926200	     0.14551500
 H	     5.97879500	     3.98837500	     0.88216000
 H	     3.44116600	     5.71048800	     1.12554500
 H	     4.04546700	     5.33354500	     2.73694300
 H	     1.82085000	     4.91973500	     3.43061200
 H	     0.74677600	     7.02027900	    -0.35137700
 H	    -0.55128100	     6.88362000	    -1.64387400
 H	    -2.31969600	     6.71897700	     0.14945400
 H	    -1.02193300	     6.85879800	     1.44192200
 H	    -2.96268500	     4.42972700	    -3.57629100
 H	    -5.22928800	     4.24538100	    -2.93170100
 H	    -4.76702600	     4.83749900	    -1.33851200
 H	    -5.76099100	    -1.05647500	     1.54720700
 H	    -5.25596100	    -4.38635600	     4.71954100
 H	    -4.06776300	    -3.23976500	     4.06573100
 H	    -4.16338800	    -4.88519600	     3.41785200
 H	    -6.00516000	    -1.59862600	     3.71807800
 H	    -7.12959200	    -2.82742200	     4.31419700
 H	    -7.40783200	    -2.07303000	     2.73809600
 H	    -7.50655800	    -4.41672600	     1.69305400
 H	    -6.21203200	    -5.58619800	     1.99994500
 H	    -7.27464000	    -5.08024600	     3.32340200
 H	    -4.18547600	    -5.02437400	     1.16234200
 Co	    -0.14492600	     1.79508400	    -0.19437800
 H	    -0.72345500	     0.66678500	     0.90881600
 H	     0.79917100	     1.15228300	    -1.42994300

