42
CoH2L52.xyz
 Fe	    -2.73439300	    -0.09944900	    -0.08468600
 N	     1.02904900	    -0.12563600	     0.08313000
 O	     0.41366600	    -2.11615000	     0.91709100
 C	     0.15699600	    -1.08181900	     0.09864600
 C	     1.73696100	    -1.88764800	     1.48890900
 H	     2.41329700	    -2.63070900	     1.05980900
 H	     1.66579900	    -2.02675900	     2.56754700
 C	     2.08738200	    -0.43944600	     1.07070900
 C	    -1.07279700	    -1.14554500	    -0.66776900
 C	    -1.47695800	    -0.23738300	    -1.70862100
 C	    -2.79312200	    -0.59821100	    -2.10600300
 H	    -3.38432900	    -0.09330800	    -2.85818400
 C	    -3.21323300	    -1.71316100	    -1.31657400
 H	    -4.18181800	    -2.19300000	    -1.36238400
 C	    -2.15919700	    -2.05616500	    -0.42739300
 H	    -2.17137300	    -2.84014500	     0.31646800
 C	    -2.69606100	     1.85898900	     0.59228500
 H	    -2.10579400	     2.65537600	     0.15812900
 C	    -2.27093200	     0.97025700	     1.62532000
 H	    -1.29484400	     0.96770100	     2.09296600
 C	    -3.33379700	     0.05364900	     1.88829600
 H	    -3.30839500	    -0.76268100	     2.59830700
 C	    -4.41855600	     0.37638900	     1.01604800
 H	    -5.35878300	    -0.15524800	     0.94693000
 C	    -4.02416200	     1.48979400	     0.21398800
 H	    -4.61376400	     1.95075300	    -0.56776800
 H	     1.96726100	     0.24440900	     1.91711200
 H	    -0.87948600	     0.56428900	    -2.12312600
 C	     3.47372500	    -0.25996300	     0.49535500
 C	     3.83891300	    -0.89910200	    -0.69706700
 C	     4.40369400	     0.55508700	     1.14700200
 C	     5.11803200	    -0.72852500	    -1.22406300
 H	     3.11643300	    -1.52353500	    -1.21641800
 C	     5.68692400	     0.72551800	     0.62129200
 H	     4.11998200	     1.06094700	     2.06644100
 C	     6.04618500	     0.08351000	    -0.56454800
 H	     5.39105800	    -1.22636400	    -2.15037900
 H	     6.40109500	     1.36210300	     1.13617900
 H	     7.04253700	     0.21682000	    -0.97666200
 Co	     0.84817600	     1.82861700	    -0.63326200
 H	     1.43254700	     2.16106400	    -2.17833900
 H	     0.88937900	     2.89260500	     0.67975800

