114
CoH2L86.xyz
 C	    -5.53331100	     4.74667900	    -0.19844800
 C	    -4.14029300	     4.55572000	     0.43849600
 C	    -4.30280800	     3.96913300	     1.85756500
 C	    -3.46746300	     5.93205000	     0.55750000
 C	    -3.32040600	     3.58014700	    -0.41431500
 C	    -2.11316400	     3.93119200	    -1.03169700
 C	    -1.38100100	     3.00236600	    -1.77495900
 C	    -1.82099400	     1.68361600	    -1.92189800
 C	    -0.97389100	     0.66283300	    -2.63914200
 C	    -0.04368400	    -0.17936100	    -1.68155500
 C	     0.93753100	    -1.01099600	    -2.57831500
 C	     1.95302900	    -1.84006400	    -1.82600700
 C	     1.60826900	    -3.02517800	    -1.16658900
 C	     2.57009100	    -3.78643600	    -0.50010000
 C	     3.91749000	    -3.40308900	    -0.46975200
 C	     5.00783300	    -4.25111200	     0.19929400
 C	     4.44274900	    -5.53020600	     0.83680000
 C	     6.05030300	    -4.65848500	    -0.86448900
 C	     5.70315300	    -3.42973700	     1.30365900
 C	     4.25600700	    -2.20806900	    -1.12588600
 C	     3.29693400	    -1.44671100	    -1.79109700
 C	     0.75219100	     0.79166100	    -0.83831800
 N	     0.75244500	     0.96609900	     0.43105300
 C	     1.64545000	     2.09443000	     0.75694700
 C	     2.83534500	     1.67988300	     1.59085000
 C	     3.34221300	     0.37745200	     1.56626900
 C	     4.49600100	     0.06181100	     2.28625100
 C	     5.15405400	     1.04281400	     3.02963300
 C	     4.64718400	     2.34441400	     3.06153400
 C	     3.49019000	     2.65715600	     2.34984300
 C	     1.98131600	     2.68593500	    -0.65953900
 O	     1.52881500	     1.62118700	    -1.56371000
 C	    -0.90584700	    -1.13161900	    -0.88359600
 N	    -1.16753400	    -1.15361500	     0.36864700
 C	    -1.96360000	    -2.36105000	     0.67091500
 C	    -3.14133900	    -2.08340200	     1.57051000
 C	    -3.90102300	    -0.91727500	     1.43279600
 C	    -5.02525400	    -0.71159900	     2.23123500
 C	    -5.40130900	    -1.66987700	     3.17568000
 C	    -4.63821200	    -2.82948600	     3.32744800
 C	    -3.50975400	    -3.03077400	     2.53106200
 C	    -2.28552600	    -2.94051700	    -0.76103000
 O	    -1.46734800	    -2.10378400	    -1.63458100
 C	    -3.04644500	     1.33795300	    -1.33933500
 C	    -3.77811300	     2.26615400	    -0.60509300
 H	    -6.13582700	     5.43649700	     0.40509200
 H	    -6.07956900	     3.79996800	    -0.26883600
 H	    -5.44881600	     5.16352100	    -1.20916900
 H	    -4.87685000	     4.65812500	     2.48930900
 H	    -3.32676500	     3.80278400	     2.32714300
 H	    -4.83105600	     3.01019700	     1.84146300
 H	    -4.08392500	     6.58909100	     1.18130700
 H	    -3.35122600	     6.41581700	    -0.41927200
 H	    -2.47907800	     5.86066400	     1.02564500
 H	    -1.72508500	     4.93925700	    -0.94007100
 H	    -0.45564200	     3.31234900	    -2.25177000
 H	    -1.59225600	    -0.05000800	    -3.19125400
 H	    -0.31779700	     1.15654100	    -3.35977700
 H	     1.45479800	    -0.29831600	    -3.22423400
 H	     0.31978000	    -1.64428200	    -3.22016500
 H	     0.58538500	    -3.38557000	    -1.19642000
 H	     2.25251500	    -4.70249800	    -0.01575100
 H	     3.96803100	    -6.18109700	     0.09369900
 H	     5.25655800	    -6.09726000	     1.30268300
 H	     3.70668800	    -5.30440300	     1.61665300
 H	     5.58324000	    -5.24067600	    -1.66758700
 H	     6.53029500	    -3.78443300	    -1.31722600
 H	     6.83568000	    -5.27424700	    -0.40949200
 H	     4.99146000	    -3.16225000	     2.09260500
 H	     6.14052600	    -2.50645600	     0.90988500
 H	     6.51066500	    -4.01495000	     1.76038800
 H	     5.28743100	    -1.86801000	    -1.13394400
 H	     3.59804200	    -0.54388800	    -2.31412700
 H	     1.06518400	     2.83452800	     1.31182900
 H	     2.84052500	    -0.38855900	     0.98519900
 H	     4.87924900	    -0.95217800	     2.26349900
 H	     6.05364800	     0.79372300	     3.58592500
 H	     5.14902300	     3.11332900	     3.64247400
 H	     3.09616500	     3.67009800	     2.37121900
 H	    -1.29350200	    -3.05759000	     1.18232500
 H	    -3.60196400	    -0.16548500	     0.71372200
 H	    -5.60556600	     0.20009100	     2.11879700
 H	    -6.27829600	    -1.50910900	     3.79660200
 H	    -4.91575200	    -3.57341600	     4.06899300
 H	    -2.91275800	    -3.93149100	     2.65135500
 H	    -3.43934300	     0.33436300	    -1.45821500
 H	    -4.72082600	     1.95324400	    -0.16671200
 C	    -3.72583500	    -2.92633800	    -1.20872200
 C	    -4.18758500	    -2.06958800	    -2.21075300
 C	    -4.62776200	    -3.80362500	    -0.59112400
 C	    -5.53981200	    -2.05954500	    -2.56372100
 H	    -3.49168800	    -1.42048700	    -2.72833700
 C	    -5.97617700	    -3.79107100	    -0.94056600
 H	    -4.27565000	    -4.48805300	     0.17429500
 C	    -6.43907800	    -2.91212200	    -1.92425100
 H	    -5.88485200	    -1.38467800	    -3.34210600
 H	    -6.66589400	    -4.46874800	    -0.44544000
 H	    -7.49108800	    -2.90073800	    -2.19481700
 C	     3.40108000	     3.07550100	    -0.93749500
 C	     3.73151400	     4.43374500	    -0.96828400
 C	     4.41261800	     2.12008400	    -1.09585200
 C	     5.05689200	     4.83652100	    -1.14493700
 H	     2.94867600	     5.17850600	    -0.84794800
 C	     5.73367800	     2.52095700	    -1.28234300
 H	     4.16783600	     1.06636200	    -1.05877700
 C	     6.06055300	     3.88009500	    -1.30358700
 H	     5.30149600	     5.89480200	    -1.16386400
 H	     6.51066700	     1.77129500	    -1.40347900
 H	     7.09227700	     4.19022200	    -1.44402000
 H	     1.32072400	     3.53420000	    -0.84885000
 H	    -1.88157700	    -3.95170100	    -0.84137700
 Co	    -0.39576100	     0.03588100	     1.90184400
 H	    -1.34303700	     1.19394800	     2.65346300
 H	     0.39462300	    -0.99615800	     2.96716500

