67
CoH2L22.xyz
 C	     5.43039500	     0.38464300	    -1.26139000
 C	     4.00091600	     0.04786400	    -1.60131300
 C	     3.69263600	    -1.05185400	    -2.41461600
 C	     2.36574600	    -1.38704800	    -2.68566800
 C	     1.32165100	    -0.63649700	    -2.14806400
 C	     1.62234100	     0.44593400	    -1.31316000
 N	     0.58436300	     1.20400600	    -0.72381900
 C	     0.50591200	     2.67968800	    -0.75343900
 C	    -1.01365300	     2.93123200	    -0.55103000
 C	    -1.33415000	     4.09189800	     0.39885700
 C	    -0.73143400	     5.39568300	    -0.13864900
 C	    -2.84502600	     4.23498800	     0.60673000
 N	    -1.52610600	     1.63376500	    -0.05029900
 C	    -0.58754400	     0.74814000	    -0.21356400
 C	    -0.90794300	    -0.65307100	     0.15237600
 N	    -2.15013900	    -1.02240500	     0.04477200
 C	    -2.24923500	    -2.42287900	     0.51783800
 C	    -3.09248500	    -3.29789100	    -0.41849800
 C	    -3.10894500	    -4.74687600	     0.08418300
 C	    -4.51714800	    -2.75153700	    -0.55240200
 C	    -0.76979000	    -2.87917400	     0.64633300
 N	    -0.03982000	    -1.59502500	     0.60230600
 C	     1.27131500	    -1.40775400	     1.09401200
 C	     2.25948100	    -2.35017300	     0.79646700
 C	     3.55464300	    -2.14875200	     1.27155700
 C	     3.86701000	    -1.01717200	     2.02448300
 C	     2.87856500	    -0.07188300	     2.33602700
 C	     3.21656000	     1.16203400	     3.13445300
 C	     1.57582400	    -0.29066000	     1.88286900
 C	     2.95184400	     0.79430400	    -1.05845300
 H	     5.74985400	    -0.15956000	    -0.36267800
 H	     6.11175500	     0.10771600	    -2.07265600
 H	     5.55320400	     1.45342400	    -1.05671700
 H	     4.49861900	    -1.64284800	    -2.84159300
 H	     2.14007600	    -2.22928700	    -3.33363600
 H	     0.28961700	    -0.87452300	    -2.38437900
 H	     1.09960300	     3.09890500	     0.06850400
 H	     0.89087900	     3.05729400	    -1.70145600
 H	    -1.50430300	     3.12447000	    -1.51519400
 H	    -0.86474300	     3.85769100	     1.36559200
 H	    -1.15563100	     5.64318100	    -1.12030900
 H	    -0.95028600	     6.22813900	     0.53945900
 H	     0.35774400	     5.33472700	    -0.24804900
 H	    -3.34917400	     4.45221100	    -0.34360300
 H	    -3.06100700	     5.05888500	     1.29707400
 H	    -3.28584700	     3.32198700	     1.02005400
 H	    -2.73363800	    -2.40112500	     1.50409200
 H	    -2.60989600	    -3.27202400	    -1.40640700
 H	    -3.71116600	    -5.37627700	    -0.58057000
 H	    -3.54858100	    -4.80454800	     1.08835700
 H	    -2.10376100	    -5.18204000	     0.13071600
 H	    -5.10529300	    -3.37748100	    -1.23374700
 H	    -4.52404000	    -1.72819500	    -0.94207300
 H	    -5.02458700	    -2.74543700	     0.42068000
 H	    -0.46484400	    -3.50768000	    -0.19949400
 H	    -0.55094000	    -3.40320400	     1.57773400
 H	     2.02166900	    -3.21151300	     0.18186400
 H	     4.32816500	    -2.87475700	     1.03825300
 H	     4.88254500	    -0.86743500	     2.38198300
 H	     3.81158200	     1.86381700	     2.53501000
 H	     3.81009100	     0.91503500	     4.02218700
 H	     2.31348100	     1.68687000	     3.46157900
 H	     0.79091000	     0.40994900	     2.15022900
 H	     3.16708700	     1.63634400	    -0.40807500
 Co	    -3.44018100	     0.67788000	    -0.03602900
 H	    -4.17202700	     1.04810300	    -1.49655800
 H	    -4.43524100	     0.69494000	     1.31027100

