63
CoH2L48.xyz
 C	     4.68771500	    -1.11336700	    -1.68096200
 C	     4.86214200	    -0.00177100	    -0.63425600
 C	     6.27246400	    -0.12432000	    -0.02981500
 C	     4.68957300	     1.37000800	    -1.30379600
 C	     3.82533400	    -0.19944400	     0.50656300
 C	     3.90469400	     0.82997800	     1.65267500
 O	     2.68788000	     1.61642800	     1.51257200
 C	     1.91192500	     0.99465400	     0.60353000
 C	     0.60571000	     1.67592300	     0.40133900
 C	     0.68890600	     3.09459700	     0.49580000
 C	    -0.43037500	     3.87582700	     0.39460900
 C	    -1.71223000	     3.28666200	     0.28505500
 C	    -2.87908400	     4.09576700	     0.27542400
 C	    -4.13008400	     3.52688500	     0.24400600
 C	    -4.25494200	     2.11827300	     0.23413700
 C	    -3.14053900	     1.31011600	     0.22157200
 C	    -1.82504800	     1.85634900	     0.22278200
 C	    -0.63153500	     1.04874000	     0.20810300
 P	    -0.67627100	    -0.77159700	    -0.11582200
 C	    -1.99356000	    -1.01319300	    -1.36733300
 C	    -3.02395800	    -1.94844700	    -1.20886900
 C	    -3.96461900	    -2.13155000	    -2.22447400
 C	    -3.88544600	    -1.38456700	    -3.40086900
 C	    -2.85219800	    -0.45808900	    -3.56584000
 C	    -1.90428600	    -0.27898100	    -2.56010300
 C	    -1.26530400	    -1.54680300	     1.43089700
 C	    -1.71530400	    -0.81278300	     2.53727600
 C	    -2.10774900	    -1.47277900	     3.70291500
 C	    -2.06049900	    -2.86649200	     3.77259000
 C	    -1.60505800	    -3.60323000	     2.67622700
 C	    -1.19619700	    -2.94823000	     1.51519900
 N	     2.42613000	    -0.03891800	     0.02939900
 H	     3.70385400	    -1.07534600	    -2.15966300
 H	     4.80461600	    -2.10453300	    -1.22747000
 H	     5.44495600	    -1.01061400	    -2.46769900
 H	     7.02368400	    -0.07590500	    -0.82638800
 H	     6.49776900	     0.67961100	     0.67977400
 H	     6.39728200	    -1.08216700	     0.49018800
 H	     3.70159400	     1.46294800	    -1.76787700
 H	     5.44105000	     1.50123800	    -2.09071100
 H	     4.81335500	     2.19611200	    -0.59301100
 H	     3.93627000	    -1.21638200	     0.89152200
 H	     3.88300600	     0.36797400	     2.64236100
 H	     4.74400500	     1.52154900	     1.59165900
 H	     1.66061100	     3.55241100	     0.63205300
 H	    -0.34861900	     4.95837500	     0.43207800
 H	    -2.75729600	     5.17484000	     0.31147800
 H	    -5.01907600	     4.15068700	     0.24402200
 H	    -5.24180600	     1.66498300	     0.24147500
 H	    -3.28088100	     0.24030100	     0.23139000
 H	    -3.10654600	    -2.52136800	    -0.29108800
 H	    -4.76357300	    -2.85550100	    -2.08998100
 H	    -4.62239900	    -1.52448400	    -4.18660600
 H	    -2.78173600	     0.12450200	    -4.48006200
 H	    -1.10136700	     0.43955900	    -2.69687500
 H	    -1.75855400	     0.26991800	     2.49504100
 H	    -2.45260300	    -0.89518300	     4.55599700
 H	    -2.36916700	    -3.37709700	     4.68043200
 H	    -1.55508400	    -4.68710700	     2.72803000
 H	    -0.81645400	    -3.52207400	     0.67491900
 Co	     1.44774300	    -1.55531600	    -0.98791200
 H	     1.38228600	    -1.51088600	    -2.65519800
 H	     1.88719400	    -3.01627000	    -0.31147700

