49
CoH2L151.xyz
 C	    -2.48815000	     2.08884000	    -1.28671900
 N	    -2.58368400	     1.31388000	    -0.03444900
 C	    -1.32732900	     0.62262100	     0.41173500
 C	    -1.20044800	    -0.71119600	    -0.35799100
 C	     0.10426800	    -1.44852900	    -0.13852000
 C	     0.76204000	    -1.48284100	     1.10189400
 C	     1.93645300	    -2.20380000	     1.27037100
 C	     2.49021200	    -2.91810600	     0.19568900
 O	     3.64275900	    -3.59067000	     0.45826000
 C	     4.24435800	    -4.32162900	    -0.60645500
 C	     1.84811100	    -2.89620000	    -1.04811500
 C	     0.66769900	    -2.16410200	    -1.19714200
 N	    -2.40907300	    -1.54980300	    -0.06038700
 C	    -2.38852500	    -2.28872600	     1.21647200
 C	    -0.10188000	     1.50988900	     0.34648300
 C	     0.24386400	     2.27937600	     1.46721900
 C	     1.33746300	     3.13574300	     1.44817200
 C	     2.12337500	     3.24418200	     0.29080800
 O	     3.17701500	     4.10115100	     0.36232700
 C	     4.00817300	     4.23222100	    -0.78738900
 C	     1.79242300	     2.48512900	    -0.83930700
 C	     0.68861700	     1.63133100	    -0.80011300
 H	    -3.46952400	     2.52445600	    -1.48858500
 H	    -1.74096600	     2.88781400	    -1.22835200
 H	    -2.23492100	     1.42588100	    -2.11720300
 H	    -2.85661700	     1.95601300	     0.70876500
 H	    -1.50872900	     0.38732300	     1.46444800
 H	    -1.28069400	    -0.49375600	    -1.42719800
 H	     0.36162600	    -0.93248600	     1.94734100
 H	     2.44656400	    -2.22456200	     2.22848500
 H	     3.57787700	    -5.10936800	    -0.97917900
 H	     5.14253800	    -4.77799100	    -0.18596100
 H	     4.52695700	    -3.66187500	    -1.43633500
 H	     2.25425800	    -3.43167600	    -1.89779900
 H	     0.18011700	    -2.14859700	    -2.16942800
 H	    -2.49892300	    -2.23023100	    -0.81409500
 H	    -3.32242700	    -2.85004700	     1.29574900
 H	    -2.34350400	    -1.58741800	     2.05295900
 H	    -1.54218400	    -2.98093500	     1.28668900
 H	    -0.35277200	     2.19942500	     2.37328500
 H	     1.60525800	     3.72412100	     2.32042400
 H	     4.48058100	     3.27783500	    -1.05129300
 H	     4.78067300	     4.95461400	    -0.51697100
 H	     3.44431300	     4.61004800	    -1.64934600
 H	     2.38329400	     2.54661600	    -1.74525900
 H	     0.45662800	     1.04858100	    -1.68596800
 Co	    -4.09705300	    -0.21361300	    -0.17659500
 H	    -5.11751600	    -0.21767800	     1.15795300
 H	    -4.80472100	    -0.32617000	    -1.69844900

