50
CoH2L1.xyz
 C	     5.84133200	    -1.19594800	    -1.31225400
 C	     4.85356900	    -2.18068500	    -1.18814400
 C	     3.76136900	    -1.98225700	    -0.34000000
 C	     3.67600800	    -0.78727300	     0.37261200
 C	     4.66286600	     0.19697900	     0.25715000
 C	     5.75416400	    -0.00329700	    -0.58861000
 C	     4.37906700	     1.38242200	     1.15253300
 C	     3.00585300	     1.07395900	     1.77570200
 O	     1.96442800	     1.93689300	     1.21475200
 C	     1.06858100	     1.14945000	     0.59195300
 C	    -0.05906000	     1.86589800	    -0.03831300
 C	    -1.16704500	     1.08647100	    -0.62704400
 N	    -1.31341300	    -0.19174100	    -0.65198400
 C	    -2.62808900	    -0.48068000	    -1.26694700
 C	    -3.66740200	    -0.86163100	    -0.23458200
 C	    -3.65737900	    -1.95842900	     0.62571000
 C	    -4.70615500	    -2.10536100	     1.53721400
 C	    -5.74536700	    -1.16791000	     1.57972000
 C	    -5.75186500	    -0.07222100	     0.71195200
 C	    -4.70480000	     0.07672900	    -0.19748200
 C	    -4.51651800	     1.15413200	    -1.24178900
 C	    -3.10742100	     0.90025000	    -1.79445900
 O	    -2.13983300	     1.82388000	    -1.19402200
 C	    -0.43705700	     3.23448000	     0.56462000
 C	     0.28813900	     3.20600100	    -0.72341300
 N	     1.29520800	    -0.11631900	     0.60158300
 C	     2.57537400	    -0.34694900	     1.30888200
 H	     6.68577400	    -1.36182500	    -1.97572200
 H	     4.93582300	    -3.10369900	    -1.75499600
 H	     2.98872700	    -2.73953300	    -0.24393100
 H	     6.52720100	     0.75494000	    -0.68394900
 H	     5.13859200	     1.48261800	     1.93668300
 H	     4.35250300	     2.33359200	     0.60966100
 H	     2.97594500	     1.22266400	     2.85468000
 H	    -2.49824900	    -1.23359900	    -2.04799200
 H	    -2.84229700	    -2.67568800	     0.59691100
 H	    -4.71373300	    -2.95174600	     2.21825500
 H	    -6.55432900	    -1.29290100	     2.29440700
 H	    -6.56117100	     0.65261700	     0.74766500
 H	    -4.60613200	     2.16995600	    -0.84242500
 H	    -5.25417700	     1.05984800	    -2.04800800
 H	    -3.02712600	     1.02953500	    -2.87403600
 H	    -1.49666500	     3.46287900	     0.56139400
 H	     0.10327800	     3.50997900	     1.46288700
 H	     1.34261100	     3.45817600	    -0.73526100
 H	    -0.25720500	     3.41353100	    -1.63705500
 H	     2.40067200	    -1.05062200	     2.12660000
 Co	     0.11844600	    -1.63349400	    -0.19614700
 H	    -0.16548400	    -2.74203000	     1.02939400
 H	     0.54909300	    -2.32891300	    -1.66227800

