60
CoH2L59.xyz
 C	     4.44983600	    -3.41203000	    -0.26700900
 C	     3.47474600	    -2.22764600	    -0.14956100
 C	     2.98873900	    -2.09016500	     1.30189100
 C	     4.20629700	    -0.94515400	    -0.56835800
 C	     2.28699900	    -2.48324100	    -1.12123900
 C	     1.42247200	    -3.71122300	    -0.77849300
 O	     0.22369900	    -3.13451100	    -0.18161400
 C	     0.21830700	    -1.83117100	    -0.51898900
 C	    -1.03449700	    -1.11125300	    -0.20690900
 C	    -2.17111900	    -1.90536700	    -0.00059600
 C	    -3.40248600	    -1.32529600	     0.28878000
 C	    -4.62216100	    -2.18796800	     0.44906600
 F	    -5.33334700	    -2.26695500	    -0.70071900
 F	    -4.31050600	    -3.45300100	     0.80493300
 F	    -5.46080300	    -1.69868500	     1.39037000
 C	    -3.51790200	     0.06059500	     0.37982300
 C	    -2.39188200	     0.85657500	     0.18600400
 C	    -1.14135800	     0.29949500	    -0.10377900
 P	     0.30994900	     1.40447500	    -0.38018800
 C	     1.22392900	     1.30406000	     1.20048200
 C	     0.66629500	     0.77543700	     2.37300100
 C	     1.43151900	     0.69690900	     3.53810500
 C	     2.75271300	     1.14881800	     3.54192600
 C	     3.30951300	     1.68674000	     2.37874900
 C	     2.55061600	     1.76247700	     1.21172500
 C	    -0.38590800	     3.09035500	    -0.42376900
 C	    -0.54985100	     3.87688100	     0.72563900
 C	    -1.07341100	     5.16569200	     0.61935300
 C	    -1.43750200	     5.67431200	    -0.63012300
 C	    -1.27442600	     4.89469200	    -1.77790300
 C	    -0.74442000	     3.60843400	    -1.67818400
 N	     1.28456200	    -1.38499000	    -1.09528000
 H	     4.00194900	    -4.35478400	     0.06725900
 H	     4.78965200	    -3.54499400	    -1.30152700
 H	     5.33338800	    -3.23074400	     0.35566600
 H	     2.49531700	    -3.00096000	     1.66062800
 H	     2.29131800	    -1.25613500	     1.41221400
 H	     3.84035600	    -1.89718500	     1.96372400
 H	     5.06482000	    -0.76854800	     0.09082600
 H	     3.55325600	    -0.07230200	    -0.50782300
 H	     4.57644300	    -1.01688300	    -1.59748500
 H	     2.68535500	    -2.55818600	    -2.13631400
 H	     1.11026200	    -4.27003100	    -1.66515800
 H	     1.85288100	    -4.39263100	    -0.04683700
 H	    -2.08580600	    -2.98140900	    -0.07331200
 H	    -4.47377600	     0.52026200	     0.60813000
 H	    -2.49146200	     1.93211400	     0.26941900
 H	    -0.35914800	     0.42066600	     2.37892300
 H	     0.99414700	     0.28132500	     4.44149600
 H	     3.34747600	     1.08144900	     4.44841300
 H	     4.33723700	     2.03811200	     2.37657000
 H	     2.98940500	     2.16895600	     0.30479900
 H	    -0.26816800	     3.48425300	     1.69767800
 H	    -1.19608900	     5.77270900	     1.51193400
 H	    -1.84233700	     6.67930300	    -0.70964000
 H	    -1.55071400	     5.29039100	    -2.75102100
 H	    -0.60688300	     3.00330300	    -2.57048700
 Co	     1.32568500	     0.36721100	    -2.30807000
 H	     0.16258000	     0.20301400	    -3.49543000
 H	     2.75583600	     1.00019200	    -2.86109500

