70
CoH2L84.xyz
 C	     4.17701700	    -0.79279900	     2.79089900
 C	     2.86903600	    -0.61027400	     3.24756500
 C	     1.81349700	    -1.29616100	     2.64557300
 C	     2.04632400	    -2.16593300	     1.57064100
 C	     0.90983500	    -2.89126800	     0.88960800
 C	    -0.00020600	    -1.96768200	     0.00150000
 C	    -0.91012400	    -2.89297300	    -0.88493400
 C	    -2.04653100	    -2.16883200	    -1.56739900
 C	    -3.36113100	    -2.33719000	    -1.11267700
 C	    -4.42105100	    -1.66242200	    -1.72180300
 C	    -4.17707100	    -0.79746400	    -2.78996100
 C	    -2.86909200	    -0.61607500	    -3.24709200
 C	    -1.81363200	    -1.30107900	    -2.64394800
 C	     0.91419500	    -1.15054800	    -0.87842900
 N	     1.10071500	     0.11627800	    -0.91861900
 C	     2.11482800	     0.40835800	    -1.95932400
 C	     3.19098400	     1.34936100	    -1.47363900
 C	     3.66631200	     1.26641500	    -0.15978100
 C	     4.69613500	     2.10326000	     0.26801900
 C	     5.26092700	     3.02917800	    -0.61332900
 C	     4.78685100	     3.11754700	    -1.92409900
 C	     3.75281600	     2.28180200	    -2.35116100
 C	     2.63603600	    -1.00176800	    -2.32367500
 O	     1.66603000	    -1.90143600	    -1.70807400
 C	    -0.91467100	    -1.14916700	     0.88009200
 N	    -1.10087800	     0.11774500	     0.91863700
 C	    -2.11505100	     0.41142300	     1.95884000
 C	    -3.19090100	     1.35203200	     1.47173700
 C	    -3.75240200	     2.28605600	     2.34777100
 C	    -4.78614800	     3.12148600	     1.91937800
 C	    -5.26024800	     3.03120100	     0.60875400
 C	    -4.69577800	     2.10368100	    -0.27112700
 C	    -3.66626000	     1.26715300	     0.15800600
 C	    -2.63662700	    -0.99810300	     2.32494000
 O	    -1.66670300	    -1.89878100	     1.71070900
 C	     3.36091900	    -2.33536800	     1.11630600
 C	     4.42091900	    -1.65973000	     1.72432200
 H	     4.99867200	    -0.26225700	     3.26351900
 H	     2.66983300	     0.06233100	     4.07687200
 H	     0.80463300	    -1.16230500	     3.02583200
 H	     1.30734000	    -3.67051900	     0.23520400
 H	     0.25816900	    -3.37667100	     1.62058100
 H	    -0.25838800	    -3.37972900	    -1.61494500
 H	    -1.30771300	    -3.67098800	    -0.22909200
 H	    -3.55348600	    -3.00762300	    -0.27941300
 H	    -5.43421100	    -1.80812400	    -1.35760800
 H	    -4.99865200	    -0.26758100	    -3.26344600
 H	    -2.66980600	     0.05498600	    -4.07762900
 H	    -0.80478800	    -1.16808100	    -3.02457000
 H	     1.59234000	     0.86279300	    -2.80697200
 H	     3.22287100	     0.55681000	     0.52831600
 H	     5.05264000	     2.03311700	     1.29189600
 H	     6.06181400	     3.68280300	    -0.27867500
 H	     5.21568500	     3.84057000	    -2.61250400
 H	     3.37687700	     2.35577800	    -3.36867500
 H	     2.65279500	    -1.20685100	    -3.39377800
 H	     3.61056700	    -1.21683800	    -1.87903600
 H	    -1.59255700	     0.86685100	     2.80595100
 H	    -3.37645700	     2.36149600	     3.36517600
 H	    -5.21473800	     3.84573900	     2.60664200
 H	    -6.06089700	     3.68457800	     0.27304800
 H	    -5.05232200	     2.03204500	    -1.29488900
 H	    -3.22306600	     0.55629600	    -0.52897100
 H	    -2.65365200	    -1.20180800	     3.39530100
 H	    -3.61111900	    -1.21353700	     1.88038500
 H	     3.55319500	    -3.00739500	     0.28430700
 H	     5.43408500	    -1.80628400	     1.36049000
 Co	     0.00029400	     1.64006000	    -0.00112900
 H	    -0.65578100	     2.55294000	    -1.24845300
 H	     0.65644500	     2.55472800	     1.24496800

