36
CoH2L124.xyz
 C	    -0.24023100	     1.14431900	    -0.13244800
 C	    -1.39532300	     1.29054400	    -1.07762800
 C	    -2.70343200	     0.71175100	    -0.57919800
 C	    -3.87242300	     1.47209000	    -0.62543800
 C	    -5.07547800	     0.90257600	    -0.21274100
 C	    -5.07907200	    -0.41570900	     0.23963300
 C	    -3.87382200	    -1.10754900	     0.26548600
 N	    -2.71316800	    -0.56069000	    -0.13576300
 N	     0.13624500	     0.05185200	     0.42822200
 C	     1.38233500	     0.32900000	     1.17101000
 C	     2.59396300	    -0.23166400	     0.46119900
 C	     2.88172800	    -1.56930100	     0.19544500
 C	     4.04100200	    -1.87578000	    -0.52164300
 C	     4.89272000	    -0.85448600	    -0.96058500
 C	     4.59911000	     0.48485700	    -0.68936800
 C	     3.44073000	     0.79253600	     0.02456000
 C	     2.93505800	     2.15338400	     0.44964000
 C	     1.54841500	     1.87365800	     1.04983400
 O	     0.48185400	     2.24618200	     0.10927900
 H	    -1.11693800	     0.77795500	    -2.00948800
 H	    -1.52720600	     2.34787000	    -1.31190800
 H	    -3.83281900	     2.49554700	    -0.98273900
 H	    -5.99347200	     1.48149800	    -0.24188400
 H	    -5.99018400	    -0.90119400	     0.57181100
 H	    -3.81456800	    -2.13159600	     0.62020100
 H	     1.27971800	    -0.02862700	     2.19834000
 H	     2.21200800	    -2.35620500	     0.53187700
 H	     4.28139100	    -2.91192400	    -0.74208900
 H	     5.79040100	    -1.10556700	    -1.51905500
 H	     5.26343100	     1.27365700	    -1.03297500
 H	     2.86676900	     2.86785400	    -0.37761100
 H	     3.58812300	     2.60252600	     1.20761200
 H	     1.34945400	     2.42542400	     1.96857700
 Co	    -0.92815700	    -1.72725900	     0.13202700
 H	    -1.05437700	    -2.63492700	     1.53589500
 H	    -0.50953500	    -2.57524700	    -1.24929200

