52
CoH2L114.xyz
 C	    -3.28598300	    -2.48462200	    -0.31107600
 C	    -3.74354900	    -1.01849500	    -0.25014300
 C	    -2.84822900	    -0.23021800	     0.74303700
 C	    -3.34542500	     1.19940900	     1.06230300
 O	    -2.17382900	     2.04287900	     0.87232600
 C	    -1.20222200	     1.25934600	     0.37190200
 C	     0.02827300	     1.98439800	    -0.00905600
 C	    -0.20233300	     3.31525400	    -0.76048100
 C	     0.25757300	     3.36301300	     0.64411100
 C	     1.25349600	     1.23312400	    -0.35432900
 N	     1.47935000	    -0.02898300	    -0.25022200
 C	     2.87236500	    -0.29229800	    -0.69695900
 C	     3.72804900	    -1.03946700	     0.36019300
 C	     5.17984000	    -1.09954400	    -0.14963000
 C	     3.21168300	    -2.47853800	     0.50967000
 C	     3.66989200	    -0.32286400	     1.71720200
 C	     3.38939100	     1.11876600	    -1.06629600
 O	     2.25722100	     1.99918600	    -0.81631100
 N	    -1.46548600	     0.00624200	     0.25114200
 C	    -3.68639000	    -0.40077100	    -1.65485600
 C	    -5.18814000	    -0.99119200	     0.28485000
 H	    -3.31240100	    -2.94745400	     0.68223000
 H	    -3.95127700	    -3.05664500	    -0.96918200
 H	    -2.26919300	    -2.58471800	    -0.70423600
 H	    -2.77070000	    -0.81947900	     1.66291700
 H	    -3.68138300	     1.32636600	     2.09182300
 H	    -4.11364700	     1.56528100	     0.37938100
 H	     0.50441400	     3.53097300	    -1.55319800
 H	    -1.23930800	     3.54761100	    -0.97588500
 H	     1.29421700	     3.61111600	     0.84173300
 H	    -0.44965700	     3.63641900	     1.41808800
 H	     2.81670800	    -0.92330500	    -1.58974300
 H	     5.78873800	    -1.70452900	     0.53184300
 H	     5.23084400	    -1.56239900	    -1.14305300
 H	     5.64611200	    -0.10979200	    -0.21173800
 H	     3.26301400	    -3.01540800	    -0.44526500
 H	     2.17455000	    -2.50589300	     0.85748100
 H	     3.82379000	    -3.02537200	     1.23721400
 H	     4.31049500	    -0.83702900	     2.44280300
 H	     4.01781800	     0.71555200	     1.65113600
 H	     2.64943200	    -0.31514500	     2.11506200
 H	     3.66088500	     1.22008900	    -2.11811400
 H	     4.21048200	     1.47286400	    -0.44219500
 H	    -3.99491500	     0.65189100	    -1.65671600
 H	    -2.67469400	    -0.46013100	    -2.06975800
 H	    -4.36007200	    -0.94115100	    -2.32979400
 H	    -5.23767500	    -1.37350500	     1.31210000
 H	    -5.82770800	    -1.62618700	    -0.33855300
 H	    -5.62044200	     0.01568900	     0.27487900
 Co	    -0.03972400	    -1.46935700	    -0.13354400
 H	    -0.13665900	    -2.48772800	     1.20415300
 H	     0.02685600	    -2.19448900	    -1.64693400

