126
CoH2L165.xyz
 C	    -2.00208200	    -4.59921900	    -0.80664900
 C	    -0.74554500	    -5.22418800	    -0.20027200
 C	     0.36050900	    -4.18745200	     0.17531000
 C	     0.81978200	    -3.48307500	    -1.07928500
 O	     1.34344400	    -4.31420900	    -2.00055600
 N	     0.81508500	    -2.23232100	    -1.36700500
 C	     1.53631800	    -2.06591500	    -2.64713300
 C	     1.69315700	    -3.51368800	    -3.18026100
 C	     3.16717900	    -3.71712000	    -3.55505500
 C	     3.87348700	    -2.55924300	    -2.88680100
 C	     2.96137500	    -1.61336400	    -2.40756400
 C	     3.38261700	    -0.47454900	    -1.73185900
 C	     4.75637500	    -0.25181800	    -1.53296700
 C	     5.22087500	     0.94232300	    -0.78398600
 C	     4.49390500	     2.14112300	    -0.83937500
 C	     4.89299000	     3.26786500	    -0.11487200
 C	     4.10475200	     4.58597700	    -0.14024300
 C	     3.64849200	     4.92927400	     1.29410000
 C	     5.01145400	     5.71552600	    -0.67316300
 C	     2.85639900	     4.50430900	    -1.03356500
 C	     6.05693800	     3.17193000	     0.65998800
 C	     6.81532500	     1.99583400	     0.73630500
 C	     8.07637300	     1.96472000	     1.61317100
 C	     8.77282100	     0.59482900	     1.58899800
 C	     7.69323200	     2.28647900	     3.07331600
 C	     9.07607700	     3.02407000	     1.10171600
 C	     6.37743500	     0.88492900	     0.00845500
 C	     5.66971800	    -1.19741600	    -2.04029900
 C	     5.23984500	    -2.34510600	    -2.70777100
 C	     1.59916100	    -4.92760100	     0.77395100
 C	     2.74789400	    -3.99390700	     1.15780800
 C	    -0.20649300	    -3.26459200	     1.23106800
 O	    -0.45350000	    -3.88608200	     2.39930200
 N	    -0.50605500	    -2.01834600	     1.16298000
 C	    -1.10655700	    -1.61799500	     2.45579700
 C	    -0.99727600	    -2.89794200	     3.33204800
 C	    -2.41651400	    -3.28447100	     3.78637300
 C	    -3.32133600	    -2.32527100	     3.04651600
 C	    -2.59098300	    -1.36898700	     2.33498100
 C	    -3.22008700	    -0.37512400	     1.59461400
 C	    -4.62372200	    -0.32051900	     1.55668600
 C	    -5.31376400	     0.73046800	     0.76891300
 C	    -6.53166300	     0.45740300	     0.12041600
 C	    -7.18616800	     1.43377600	    -0.63034800
 C	    -8.51487200	     1.16893700	    -1.35386000
 C	    -8.32850200	     1.40064500	    -2.86854900
 C	    -9.01922800	    -0.26776500	    -1.14510000
 C	    -9.58778700	     2.14034700	    -0.81669100
 C	    -6.59147800	     2.70474200	    -0.72864900
 C	    -5.38159600	     3.01282800	    -0.10220500
 C	    -4.72174100	     4.39584900	    -0.20467100
 C	    -3.31787000	     4.24290800	    -0.82922400
 C	    -5.53341200	     5.36922100	    -1.07402900
 C	    -4.58870700	     5.00429100	     1.20771300
 C	    -4.75740100	     2.00755500	     0.65078100
 C	    -5.35299100	    -1.28541600	     2.27935100
 C	    -4.71522100	    -2.28213700	     3.01885200
 H	    -1.77584200	    -4.04315200	    -1.72373700
 H	    -2.72513000	    -5.38195200	    -1.06022900
 H	    -2.48928800	    -3.90590300	    -0.11248300
 H	    -0.99654200	    -5.77767800	     0.70950000
 H	    -0.29850600	    -5.93544800	    -0.90079600
 H	     0.96785200	    -1.40369100	    -3.30370500
 H	     0.99130200	    -3.79529700	    -3.96602800
 H	     3.27662400	    -3.67868600	    -4.64618900
 H	     3.52869000	    -4.69822300	    -3.22996800
 H	     2.64961300	     0.20984900	    -1.31707800
 H	     3.61381700	     2.18586700	    -1.46802300
 H	     3.00039600	     4.14135100	     1.69531900
 H	     3.08409700	     5.86992700	     1.29864900
 H	     4.49855100	     5.04560200	     1.97487700
 H	     5.89880400	     5.85451100	    -0.04627500
 H	     4.46378100	     6.66580100	    -0.69386800
 H	     5.35071300	     5.49623500	    -1.69251400
 H	     2.32556100	     5.46289800	    -1.00991200
 H	     2.16049900	     3.73009000	    -0.69098900
 H	     3.11513000	     4.29491800	    -2.07787700
 H	     6.37987500	     4.03923900	     1.22637200
 H	     8.12195200	    -0.19968500	     1.97149800
 H	     9.09288300	     0.31827400	     0.57782900
 H	     9.66631500	     0.62579900	     2.22297000
 H	     6.98060100	     1.54920800	     3.46142500
 H	     8.58389300	     2.26964300	     3.71357500
 H	     7.23472600	     3.27678000	     3.16428500
 H	     9.98327200	     3.02112400	     1.71852500
 H	     8.65208000	     4.03320300	     1.13517200
 H	     9.36848300	     2.81688100	     0.06546900
 H	     6.91699400	    -0.05172500	     0.07241400
 H	     6.73483700	    -1.02525200	    -1.91853200
 H	     5.96754100	    -3.06099000	    -3.08122200
 H	     1.93522100	    -5.65541500	     0.03053500
 H	     1.25526400	    -5.48764300	     1.64727200
 H	     3.57167700	    -4.57054500	     1.59198800
 H	     3.14143300	    -3.45259900	     0.29025800
 H	     2.43522100	    -3.24961900	     1.89958100
 H	    -0.55587300	    -0.75909100	     2.84655200
 H	    -0.28298700	    -2.82568100	     4.15204000
 H	    -2.51077400	    -3.16786000	     4.87262100
 H	    -2.62352100	    -4.33584000	     3.55852600
 H	    -2.62942800	     0.33103100	     1.01958200
 H	    -6.94297300	    -0.54190500	     0.19197300
 H	    -7.56845200	     0.72380600	    -3.27611500
 H	    -8.01597800	     2.42715000	    -3.08721700
 H	    -9.27000300	     1.21645600	    -3.40070400
 H	    -8.31213400	    -1.00819900	    -1.53599900
 H	    -9.19489700	    -0.48776700	    -0.08576600
 H	    -9.96925200	    -0.40412200	    -1.67435400
 H	    -9.30530800	     3.18624400	    -0.97647900
 H	   -10.54473400	     1.97020300	    -1.32538700
 H	    -9.74349400	     1.99449700	     0.25885300
 H	    -7.09264400	     3.46481300	    -1.31477600
 H	    -2.67285200	     3.59488500	    -0.22676000
 H	    -2.82861900	     5.22148000	    -0.91017300
 H	    -3.38282200	     3.80973200	    -1.83415900
 H	    -5.01962800	     6.33623600	    -1.11931400
 H	    -5.64293400	     5.00325000	    -2.10128300
 H	    -6.53480800	     5.54453900	    -0.66406500
 H	    -4.11649800	     5.99293800	     1.15306600
 H	    -3.97580100	     4.37747300	     1.86392900
 H	    -5.57269200	     5.12260300	     1.67704000
 H	    -3.82891300	     2.22453600	     1.16811200
 H	    -6.43789900	    -1.24002300	     2.27803300
 H	    -5.30432800	    -3.00891400	     3.57228500
 Co	    -0.24070900	    -0.70575300	    -0.43596300
 H	    -1.52365400	    -0.33889200	    -1.45528700
 H	     0.56895500	     0.64942000	     0.13966200

