50
CoH2L77.xyz
 C	    -0.65599000	     3.35300200	     1.03851900
 C	    -0.04006100	     2.39359600	    -0.01230200
 C	     0.62402600	     3.20991800	    -1.15579100
 C	     1.04807900	     1.57677300	     0.65055700
 N	     1.25005300	     0.31066200	     0.62690400
 C	     2.49700000	     0.01153200	     1.37605600
 C	     3.48706500	    -0.72082100	     0.49779500
 C	     3.92362500	    -2.00189700	     0.84452800
 C	     4.82515000	    -2.68752600	     0.02646100
 C	     5.29342100	    -2.09476200	    -1.14671900
 C	     4.85794400	    -0.81372100	    -1.50010500
 C	     3.95973600	    -0.13114300	    -0.68194400
 C	     2.95433400	     1.41314700	     1.85208100
 O	     1.94591000	     2.32189700	     1.31902600
 C	    -1.15846200	     1.56968800	    -0.61481000
 N	    -1.29353500	     0.29647400	    -0.69447200
 C	    -2.59270400	    -0.00369800	    -1.34896700
 C	    -3.49951800	    -0.76955900	    -0.41055900
 C	    -3.86567900	    -0.21845500	     0.82436200
 C	    -4.69816300	    -0.92294200	     1.69207000
 C	    -5.17405900	    -2.18792500	     1.33318700
 C	    -4.81221700	    -2.74205200	     0.10475300
 C	    -3.97636800	    -2.03446400	    -0.76294200
 C	    -3.10712000	     1.40339900	    -1.74346900
 O	    -2.14313100	     2.31835100	    -1.14419100
 H	     0.12205800	     3.99782100	     1.45116100
 H	    -1.11720800	     2.78961500	     1.85634200
 H	    -1.41774400	     3.97607500	     0.56634400
 H	     1.41841100	     3.83763000	    -0.74534900
 H	     1.05244800	     2.54149900	    -1.90952000
 H	    -0.12115000	     3.85053900	    -1.63262800
 H	     2.23217600	    -0.62428800	     2.22423500
 H	     3.55223200	    -2.46531800	     1.75477300
 H	     5.15652900	    -3.68388000	     0.30527800
 H	     5.99230700	    -2.62739400	    -1.78562000
 H	     5.21636600	    -0.34935800	    -2.41460600
 H	     3.61785100	     0.86098600	    -0.96711300
 H	     2.95454600	     1.52030400	     2.93779500
 H	     3.92115400	     1.71747900	     1.44800900
 H	    -2.39251500	    -0.61118200	    -2.23421800
 H	    -3.49548100	     0.76262800	     1.11207000
 H	    -4.97463100	    -0.48755100	     2.64837700
 H	    -5.82190500	    -2.73782700	     2.01011300
 H	    -5.17581600	    -3.72568100	    -0.17903200
 H	    -3.68912400	    -2.46769500	    -1.71752500
 H	    -4.08969500	     1.64211300	    -1.33477800
 H	    -3.09871600	     1.57516300	    -2.82147600
 Co	     0.08934400	    -1.18930300	    -0.22156100
 H	    -0.35315500	    -2.29211800	     0.95940500
 H	     0.64068000	    -1.87286200	    -1.65214200

