118
CoH2L76.xyz
 C	     4.91162100	    -4.24587500	     0.50978000
 C	     3.86164100	    -3.19428200	     0.92614400
 C	     2.52671200	    -3.91075900	     1.18989100
 C	     4.30536100	    -2.51479900	     2.23882100
 C	     3.74267600	    -2.13704700	    -0.18040800
 C	     2.55922800	    -1.93780800	    -0.89830700
 C	     2.47121900	    -0.95825600	    -1.89275200
 C	     1.17712700	    -0.73004500	    -2.63763200
 C	     0.03048900	    -0.12309800	    -1.75398500
 C	    -1.11647500	     0.36172600	    -2.71382800
 C	    -2.40720100	     0.69841100	    -2.00675000
 C	    -2.50185900	     1.84530100	    -1.20521200
 C	    -3.67698100	     2.14818000	    -0.51649700
 C	    -3.81061000	     3.38900600	     0.37716000
 C	    -4.86719300	     4.33564400	    -0.23052200
 C	    -4.25688100	     2.96124000	     1.79129800
 C	    -2.48312700	     4.15290600	     0.51096200
 C	    -4.77365600	     1.27984600	    -0.66778800
 C	    -4.71571800	     0.12911700	    -1.45665600
 C	    -5.91516300	    -0.81306500	    -1.63868900
 C	    -7.10516700	    -0.42510900	    -0.74696100
 C	    -5.50930800	    -2.26100900	    -1.28954200
 C	    -6.36841300	    -0.75526600	    -3.11349200
 C	    -3.50769400	    -0.14954800	    -2.11765100
 C	     0.61459600	     1.05441600	    -1.01355400
 N	     0.73627200	     1.25748400	     0.24572000
 C	     1.39305700	     2.57091700	     0.44775700
 C	     2.51861900	     2.50156800	     1.45120400
 C	     2.70889100	     3.54684400	     2.36034300
 C	     3.76678700	     3.50688900	     3.27097100
 C	     4.63644800	     2.41438100	     3.28309800
 C	     4.44435900	     1.36443100	     2.38120400
 C	     3.39277100	     1.40776200	     1.46617900
 C	     1.83958400	     2.94365500	    -0.98445500
 O	     1.11033700	     2.00568100	    -1.83057900
 C	    -0.55661600	    -1.19022400	    -0.86189900
 N	    -0.75081400	    -1.18884500	     0.40473100
 C	    -1.40159200	    -2.46002700	     0.78508400
 C	    -2.67531800	    -2.25613700	     1.57575000
 C	    -3.37586600	    -1.04705600	     1.53846100
 C	    -4.57451400	    -0.90923400	     2.24175000
 C	    -5.09210800	    -1.98129900	     2.97049300
 C	    -4.39925100	    -3.19505400	     3.00247000
 C	    -3.19322300	    -3.32791600	     2.31404600
 C	    -1.63107300	    -3.15613000	    -0.58205600
 O	    -0.96943200	    -2.27827200	    -1.53980100
 C	     3.58930900	    -0.16934900	    -2.17995900
 C	     4.80256300	    -0.35651900	    -1.50510200
 C	     6.06498600	     0.45322600	    -1.83808900
 C	     6.58937000	     1.16178600	    -0.57211500
 C	     7.14793900	    -0.51233200	    -2.36613000
 C	     5.80534100	     1.52343400	    -2.91022700
 C	     4.85003100	    -1.34152200	    -0.50969500
 H	     5.89574000	    -3.79225800	     0.34894900
 H	     5.01719200	    -5.00932200	     1.29037900
 H	     4.61675700	    -4.74787500	    -0.41962100
 H	     1.74997000	    -3.20408600	     1.50266500
 H	     2.65655400	    -4.64201700	     1.99570000
 H	     2.17123200	    -4.45344100	     0.30598300
 H	     5.28031700	    -2.02704800	     2.13449800
 H	     3.57521900	    -1.76105300	     2.55223500
 H	     4.39121300	    -3.26041800	     3.03884600
 H	     1.69421400	    -2.55483500	    -0.69162300
 H	     0.79520500	    -1.66263700	    -3.06117300
 H	     1.34364500	    -0.03707800	    -3.46519600
 H	    -1.28575800	    -0.43927200	    -3.43734100
 H	    -0.72891500	     1.22449200	    -3.26270400
 H	    -1.64573700	     2.50488600	    -1.13423900
 H	    -5.84552800	     3.84899800	    -0.31052900
 H	    -4.57044300	     4.66146800	    -1.23477600
 H	    -4.98557100	     5.22826100	     0.39608800
 H	    -4.35097900	     3.84176300	     2.43874300
 H	    -3.52329000	     2.28394000	     2.24179100
 H	    -5.22834000	     2.45620200	     1.77678700
 H	    -2.12847100	     4.53278400	    -0.45433400
 H	    -2.62095800	     5.01450700	     1.17405400
 H	    -1.70243500	     3.51840000	     0.94492000
 H	    -5.69088400	     1.51507800	    -0.14311600
 H	    -7.92551800	    -1.13516900	    -0.90175700
 H	    -7.48597700	     0.57489700	    -0.98308900
 H	    -6.83758600	    -0.45125000	     0.31501300
 H	    -4.69264000	    -2.61885100	    -1.92506000
 H	    -6.36181500	    -2.93538600	    -1.43640100
 H	    -5.18932500	    -2.33819000	    -0.24580200
 H	    -5.56710100	    -1.06634200	    -3.79279700
 H	    -7.22568700	    -1.42009300	    -3.27673400
 H	    -6.66846600	     0.26222800	    -3.39085800
 H	    -3.41992000	    -1.03660100	    -2.73739500
 H	     0.62919700	     3.26600400	     0.81015200
 H	     2.02283400	     4.39038400	     2.35829200
 H	     3.90513600	     4.32337800	     3.97434200
 H	     5.45580700	     2.37756100	     3.99578600
 H	     5.10938300	     0.50660100	     2.39141300
 H	     3.24385500	     0.58578100	     0.77488500
 H	     2.90625300	     2.77256400	    -1.15019200
 H	     1.56501200	     3.95394600	    -1.28671300
 H	    -0.68838800	    -3.02747900	     1.39108100
 H	    -2.98723900	    -0.21364400	     0.96712700
 H	    -5.10092100	     0.03948600	     2.21547700
 H	    -6.02665000	    -1.87221300	     3.51392600
 H	    -4.79226000	    -4.03376600	     3.57059500
 H	    -2.64739100	    -4.26799000	     2.35033800
 H	    -1.16668000	    -4.13991300	    -0.65639000
 H	    -2.68445600	    -3.21228400	    -0.86009500
 H	     3.49968700	     0.58730100	    -2.95061600
 H	     7.49978400	     1.72675200	    -0.80696300
 H	     6.83557800	     0.45050400	     0.22260600
 H	     5.84629400	     1.86146000	    -0.17574200
 H	     8.06307300	     0.03897700	    -2.61506900
 H	     7.40565200	    -1.27337400	    -1.62176800
 H	     6.80442900	    -1.02875100	    -3.27028500
 H	     5.04623600	     2.24585000	    -2.58748300
 H	     5.47692500	     1.08267400	    -3.85816500
 H	     6.72953000	     2.07884300	    -3.10592800
 H	     5.78116900	    -1.49893100	     0.02449600
 Co	    -0.04356400	     0.16622700	     1.83891300
 H	    -1.07448800	     1.17966900	     2.68842500
 H	     0.97320000	    -0.71349700	     2.84609200

