104
CoH2L6.xyz
 C	     4.61461700	     3.59962400	     3.00381400
 C	     5.35076000	     3.23705500	     1.73719300
 C	     6.59090400	     3.82162100	     1.44176400
 C	     7.29693000	     3.48915200	     0.28166200
 C	     8.61238800	     4.15452700	    -0.04287000
 C	     6.74662000	     2.54312400	    -0.59248200
 C	     5.51041500	     1.94108000	    -0.32514200
 C	     4.94192300	     0.91095000	    -1.22726100
 C	     5.77572400	    -0.03450100	    -1.85506200
 C	     5.24980700	    -1.07931100	    -2.61610200
 C	     3.86748800	    -1.18258600	    -2.76515500
 C	     3.03659100	    -0.21871800	    -2.18458700
 C	     3.55312800	     0.81805900	    -1.41801400
 C	     1.58040200	    -0.52819500	    -2.45967200
 N	     0.80998600	    -0.70581800	    -1.21087800
 C	     0.69531600	    -1.96502900	    -1.00105900
 C	     0.08860700	    -2.69657300	     0.17414100
 C	     1.22488200	    -3.54028700	     0.85271400
 C	     2.38125900	    -2.69726900	     1.33971700
 C	     3.53002400	    -2.54756200	     0.55259100
 C	     4.58236600	    -1.73294000	     0.97210800
 C	     4.49590200	    -1.04224800	     2.18184500
 C	     3.35807600	    -1.18826100	     2.97866700
 C	     2.31345000	    -2.01514100	     2.56341300
 C	    -1.02835000	    -3.66746700	    -0.35457400
 C	    -2.19047100	    -2.93735800	    -0.98511800
 C	    -2.12769500	    -2.49700900	    -2.31491300
 C	    -3.16784000	    -1.74964000	    -2.86828800
 C	    -4.29418900	    -1.44116200	    -2.10191700
 C	    -4.37668700	    -1.89452800	    -0.78446600
 C	    -3.33015200	    -2.63267400	    -0.23078200
 C	    -0.54020000	    -1.79212600	     1.21121600
 N	    -0.77211900	    -0.53216400	     1.17054700
 C	    -1.49862300	    -0.16377400	     2.40589300
 C	    -2.97801800	     0.03294200	     2.15963800
 C	    -3.57913600	     0.93687300	     1.29312500
 C	    -4.97689700	     0.93914800	     1.15510700
 C	    -5.63278800	     1.83464000	     0.17228400
 C	    -6.88141200	     2.41499400	     0.43734000
 C	    -7.50576300	     3.24813500	    -0.49757800
 C	    -8.82627400	     3.90583400	    -0.17787300
 C	    -6.86370000	     3.48786800	    -1.71795700
 C	    -5.61772800	     2.91940500	    -2.01345100
 C	    -4.95765900	     3.15691900	    -3.34980300
 C	    -5.01134400	     2.09764100	    -1.05950800
 C	    -5.73401600	     0.03684000	     1.92689800
 C	    -5.12414100	    -0.87110300	     2.79380000
 C	    -3.73377900	    -0.88064600	     2.90111200
 C	    -2.85418600	    -1.77414300	     3.74574700
 C	    -1.43041300	    -1.44575300	     3.27659600
 O	    -0.94045700	    -2.44640600	     2.32156400
 O	     1.20112400	    -2.78492000	    -1.94687100
 C	     1.61751500	    -1.94654400	    -3.08048000
 C	     3.06553200	    -2.24042300	    -3.48908800
 C	     4.82153000	     2.30176600	     0.84625200
 H	     5.21017800	     3.35803800	     3.89359200
 H	     4.39933300	     4.67475200	     3.04472100
 H	     3.66369300	     3.06272700	     3.07731400
 H	     7.01408700	     4.54936600	     2.13173000
 H	     9.07625900	     4.58063800	     0.85287700
 H	     8.47468700	     4.97280600	    -0.76257100
 H	     9.31932400	     3.44706600	    -0.49105400
 H	     7.28222300	     2.28752500	    -1.50336000
 H	     6.84903800	     0.02156300	    -1.69993100
 H	     5.91344300	    -1.81645300	    -3.06070200
 H	     2.88579400	     1.53752300	    -0.95384700
 H	     1.08532000	     0.21903600	    -3.08369700
 H	     0.76739200	    -4.09205800	     1.67704600
 H	     1.57002000	    -4.26905100	     0.11554800
 H	     3.59996600	    -3.07193300	    -0.39566700
 H	     5.46239200	    -1.62992000	     0.34738600
 H	     5.30844500	    -0.39613300	     2.50048700
 H	     3.28527500	    -0.66392400	     3.92764300
 H	     1.44474000	    -2.14221900	     3.20186800
 H	    -0.55356600	    -4.34321900	    -1.07017100
 H	    -1.36574200	    -4.26485700	     0.49612600
 H	    -1.26343900	    -2.74727800	    -2.92316600
 H	    -3.09896100	    -1.41052700	    -3.89826300
 H	    -5.10163600	    -0.85240400	    -2.52736200
 H	    -5.24832100	    -1.66481100	    -0.18171100
 H	    -3.39716700	    -2.97159800	     0.79880000
 H	    -1.01442200	     0.70641500	     2.85457100
 H	    -2.97181000	     1.62390800	     0.71273300
 H	    -7.36288600	     2.23733700	     1.39570200
 H	    -9.44290200	     3.27279500	     0.46970300
 H	    -9.39569900	     4.12286600	    -1.08803000
 H	    -8.67601700	     4.85880700	     0.34760200
 H	    -7.34291900	     4.13173800	    -2.45309400
 H	    -3.87845000	     2.98079700	    -3.29585800
 H	    -5.36321500	     2.48213900	    -4.11610600
 H	    -5.12293400	     4.18156800	    -3.70148900
 H	    -4.05359100	     1.63790400	    -1.28578500
 H	    -6.81379500	     0.01977400	     1.81234100
 H	    -5.72973700	    -1.57393600	     3.36011200
 H	    -2.95283900	    -1.54347600	     4.81367100
 H	    -3.07444200	    -2.84048300	     3.62754100
 H	    -0.69911400	    -1.40889600	     4.08491200
 H	     0.88993400	    -2.11864400	    -3.87458500
 H	     3.16274000	    -2.14833900	    -4.57808000
 H	     3.35517500	    -3.26350700	    -3.22711400
 H	     3.87537900	     1.82261500	     1.07882900
 Co	    -0.20410300	     0.84837500	    -0.28200900
 H	    -1.30527900	     1.43389600	    -1.40515000
 H	     0.65024600	     2.06911400	     0.50432100

