88
CoH2L155.xyz
 C	    -4.46281800	     4.18013100	    -2.00616800
 C	    -3.80440000	     4.30243700	    -0.61545700
 C	    -2.77841700	     3.17447900	    -0.43130400
 C	    -3.20816000	     1.83401700	    -0.49540500
 C	    -2.35491500	     0.73796400	    -0.31840300
 C	    -2.91809000	    -0.61181000	    -0.35800100
 N	    -2.46643300	    -1.64700400	     0.24731400
 C	    -3.40314100	    -2.75632600	    -0.00632800
 C	    -4.10506500	    -3.23763900	     1.29635800
 C	    -4.89483000	    -2.09272500	     1.95053400
 C	    -3.04403400	    -3.74727800	     2.28295400
 C	    -5.05214400	    -4.39798100	     0.94606000
 C	    -4.36124200	    -2.17754700	    -1.07648700
 O	    -4.05667900	    -0.75995000	    -1.09813400
 C	    -0.98039700	     0.98397900	    -0.09165000
 N	     0.07323700	     0.09878500	     0.05417500
 C	     1.20089800	     0.87560800	     0.17873300
 C	     2.55794100	     0.49181500	     0.32116200
 C	     2.99267400	    -0.89657100	     0.30512000
 N	     2.30290500	    -1.93953400	    -0.02785000
 C	     3.16385100	    -3.13339700	     0.15009100
 C	     3.15384900	    -4.12217800	    -1.04574400
 C	     1.81401800	    -4.87145900	    -1.08202600
 C	     4.27516800	    -5.15656100	    -0.82867100
 C	     3.36436300	    -3.37918600	    -2.37306100
 C	     4.54913800	    -2.51791600	     0.44561200
 O	     4.27804900	    -1.11722600	     0.68215800
 C	     3.52422400	     1.50282200	     0.45172500
 C	     3.22275600	     2.87502500	     0.43125000
 C	     4.36254200	     3.89613200	     0.56885200
 C	     5.36436400	     3.70958000	    -0.59091500
 C	     5.09363800	     3.67806000	     1.91068100
 C	     3.85036700	     5.34490000	     0.53219900
 C	     1.88216400	     3.24720100	     0.26814600
 C	     0.89158600	     2.27373600	     0.14383200
 C	    -0.53588200	     2.34214500	    -0.04577300
 C	    -1.42082700	     3.41246900	    -0.20097900
 C	    -3.16100300	     5.69443700	    -0.51025400
 C	    -4.89312600	     4.19151400	     0.47335200
 H	    -5.20227800	     4.97777200	    -2.15299600
 H	    -3.71224000	     4.26087600	    -2.80129000
 H	    -4.97743500	     3.22114300	    -2.12832100
 H	    -4.25559100	     1.62212900	    -0.67724100
 H	    -2.83843400	    -3.60196000	    -0.41240100
 H	    -5.38196200	    -2.44289600	     2.86870200
 H	    -5.67986600	    -1.70159700	     1.29238900
 H	    -4.23151900	    -1.26306500	     2.21739500
 H	    -2.46781000	    -4.57339800	     1.85047900
 H	    -2.33639900	    -2.95717700	     2.54631600
 H	    -3.52186500	    -4.11038800	     3.20207900
 H	    -5.51555300	    -4.79933000	     1.85563500
 H	    -4.50791400	    -5.21662300	     0.45844600
 H	    -5.86256000	    -4.08670600	     0.27630900
 H	    -4.16486300	    -2.57753900	    -2.07558200
 H	    -5.42276900	    -2.28648300	    -0.84871600
 H	     2.79455800	    -3.67613400	     1.02892000
 H	     1.80350500	    -5.58703000	    -1.91431600
 H	     1.65084700	    -5.43023500	    -0.15284000
 H	     0.97352600	    -4.18549800	    -1.21767900
 H	     4.17121000	    -5.65435400	     0.14391600
 H	     4.22692300	    -5.92943400	    -1.60477600
 H	     5.27471300	    -4.70913100	    -0.87594700
 H	     4.30528400	    -2.81551300	    -2.38708200
 H	     3.39611200	    -4.09306800	    -3.20495200
 H	     2.54592200	    -2.67654000	    -2.55904400
 H	     5.23984100	    -2.57958100	    -0.39994800
 H	     5.03178100	    -2.92540800	     1.33521300
 H	     4.55599200	     1.19125600	     0.55912700
 H	     5.79915900	     2.70424600	    -0.59196500
 H	     4.87302100	     3.86301500	    -1.55903700
 H	     6.18787000	     4.43036800	    -0.50822800
 H	     4.40624000	     3.80779700	     2.75504000
 H	     5.91297600	     4.39938100	     2.02384500
 H	     5.52253500	     2.67265100	     1.98027300
 H	     3.14809400	     5.54843600	     1.34884000
 H	     3.34940200	     5.57589500	    -0.41491900
 H	     4.69361300	     6.03726400	     0.63870200
 H	     1.59912600	     4.29417400	     0.23488600
 H	    -1.03572000	     4.42566200	    -0.15219700
 H	    -2.39469700	     5.84728400	    -1.27892800
 H	    -3.92700700	     6.46671700	    -0.64691400
 H	    -2.69822900	     5.85559300	     0.47020900
 H	    -5.63812900	     4.98879200	     0.35566700
 H	    -5.41941000	     3.23229400	     0.42302300
 H	    -4.45411600	     4.28048000	     1.47419500
 Co	     0.15399800	    -1.95894000	    -0.09073900
 H	    -0.00455600	    -2.99590600	     1.26318500
 H	    -0.41850600	    -2.40443600	    -1.65538600

