106
CoH2L117.xyz
 C	     0.89006600	     0.32408000	    -1.21201200
 C	    -0.03276500	    -0.87287300	    -1.21942900
 C	    -1.06256900	    -0.79543400	    -2.43376600
 C	    -2.44032500	    -0.22374000	    -2.14038600
 C	    -3.56061200	    -1.08666000	    -2.01124100
 C	    -3.48962300	    -2.51142900	    -2.16026400
 C	    -4.59360200	    -3.30986600	    -2.01087300
 C	    -5.86525300	    -2.75192000	    -1.69671800
 C	    -5.98881800	    -1.39794700	    -1.54759000
 C	    -4.86097800	    -0.53145400	    -1.69922900
 C	    -5.00096600	     0.84527200	    -1.51362100
 C	    -3.91307600	     1.70977200	    -1.64302200
 C	    -2.61534200	     1.17428400	    -1.98605400
 C	    -1.55028300	     2.11594900	    -2.15121600
 C	    -1.73141200	     3.45722200	    -1.92909100
 C	    -3.00168500	     3.96739200	    -1.54157600
 C	    -4.06464800	     3.11362500	    -1.42054100
 C	     0.87456000	    -2.15608100	    -1.45165200
 C	     2.15849400	    -2.21694700	    -0.64601600
 C	     3.38221000	    -1.78368700	    -1.22026200
 C	     3.52037200	    -1.38298200	    -2.59049900
 C	     4.71923700	    -0.95439400	    -3.10111600
 C	     5.88347700	    -0.89071900	    -2.28494500
 C	     5.80931500	    -1.27614100	    -0.97413500
 C	     4.57875800	    -1.73282100	    -0.40587900
 C	     4.51707800	    -2.09958300	     0.93862000
 C	     3.33609800	    -2.57941700	     1.50648000
 C	     2.14224000	    -2.67412000	     0.69677900
 C	     0.99024200	    -3.26096800	     1.31159800
 C	     0.99693300	    -3.65865700	     2.62429900
 C	     2.15825000	    -3.50009300	     3.43028000
 C	     3.29833100	    -2.98358100	     2.87684600
 C	    -0.85714000	    -1.00770200	     0.03721000
 N	    -1.03301700	    -0.17496300	     0.99590500
 C	    -2.13684400	    -0.68249000	     1.85016300
 C	    -3.38967200	     0.19281500	     1.69342000
 C	    -3.08157300	     1.68960700	     1.89780100
 C	    -4.36063400	     2.46079700	     2.23425200
 C	    -4.92623400	     2.02181200	     3.60434100
 C	    -4.56878500	     0.55435700	     3.92584800
 C	    -4.51582000	    -0.28935500	     2.64773500
 C	    -2.34260500	    -2.11672900	     1.32054900
 O	    -1.58863400	    -2.13643800	     0.07319700
 N	     1.34334200	     0.99343700	    -0.21845100
 C	     2.33072400	     1.98132100	    -0.72522500
 C	     3.74452500	     1.70778100	    -0.19466300
 C	     4.71267600	     2.83745000	    -0.63916600
 C	     4.89235500	     3.88584500	     0.46381500
 C	     5.56485000	     3.26476200	     1.70768400
 C	     5.16453100	     1.78342400	     1.89484000
 C	     3.76372300	     1.51975100	     1.33594200
 C	     2.22346600	     1.82048100	    -2.25770500
 O	     1.35477100	     0.66115000	    -2.43209400
 H	    -0.57472200	    -0.22858400	    -3.22758900
 H	    -1.15959400	    -1.80973000	    -2.81357700
 H	    -2.54219600	    -2.98432700	    -2.38065100
 H	    -4.49727800	    -4.38540900	    -2.13080900
 H	    -6.72667300	    -3.40288500	    -1.57826400
 H	    -6.94843000	    -0.94764900	    -1.30683100
 H	    -5.97552700	     1.25025900	    -1.25194400
 H	    -0.58532300	     1.77095400	    -2.48984500
 H	    -0.89781100	     4.14120000	    -2.06005100
 H	    -3.12367600	     5.03103700	    -1.35959600
 H	    -5.04900000	     3.48438500	    -1.14756300
 H	     0.24053000	    -3.02243900	    -1.25798200
 H	     1.09341600	    -2.18105400	    -2.51837700
 H	     2.66318200	    -1.40813900	    -3.24879800
 H	     4.78271700	    -0.66421100	    -4.14620700
 H	     6.82197500	    -0.54376900	    -2.70743900
 H	     6.68566700	    -1.24280800	    -0.33212700
 H	     5.41010300	    -2.01983400	     1.55358400
 H	     0.09784400	    -3.41883000	     0.72480500
 H	     0.10708800	    -4.11111700	     3.05311700
 H	     2.13942600	    -3.80663300	     4.47199200
 H	     4.20589200	    -2.87739600	     3.46540700
 H	    -1.79812500	    -0.67765700	     2.88972100
 H	    -3.73456300	     0.06030000	     0.66362100
 H	    -2.60675700	     2.09426400	     1.00079500
 H	    -2.35535200	     1.81765700	     2.71189300
 H	    -4.17074900	     3.54026600	     2.22612200
 H	    -5.10073800	     2.27155800	     1.44517900
 H	    -4.53255700	     2.67122800	     4.39604800
 H	    -6.01651900	     2.14853300	     3.60953100
 H	    -5.29123300	     0.13248100	     4.63480200
 H	    -3.58978100	     0.51024300	     4.42082800
 H	    -4.38220700	    -1.34957300	     2.89742100
 H	    -5.48093600	    -0.22006600	     2.12957500
 H	    -3.37641200	    -2.35743400	     1.07248200
 H	    -1.92124700	    -2.88715300	     1.96988200
 H	     2.00088000	     2.97209000	    -0.39970600
 H	     4.07977800	     0.77440400	    -0.65261700
 H	     5.68874600	     2.39883100	    -0.88227200
 H	     4.35518600	     3.31119900	    -1.56244500
 H	     5.48099200	     4.73482800	     0.09609300
 H	     3.90753400	     4.28785800	     0.73568500
 H	     5.28280900	     3.84190500	     2.59695300
 H	     6.65606300	     3.34171800	     1.61786800
 H	     5.21259500	     1.50673200	     2.95445600
 H	     5.87873000	     1.13267100	     1.37178300
 H	     3.04900500	     2.20681500	     1.80977800
 H	     3.42847800	     0.51004800	     1.58485700
 H	     3.17169400	     1.58363800	    -2.74112300
 H	     1.74558200	     2.66368600	    -2.76093100
 Co	     0.39492600	     1.21543500	     1.64096000
 H	     0.93614600	     0.53578100	     3.07995800
 H	     0.14350900	     2.87634200	     1.75193900

