92
CoH2L118.xyz
 C	     3.65513700	     0.95548100	     2.02885600
 C	     2.71321400	     2.13497200	     2.27583900
 C	     1.70853900	     2.34973100	     1.13417600
 C	     2.30244300	     2.66638500	    -0.25229900
 O	     1.50950100	     1.84314200	    -1.16181800
 C	     0.81015100	     0.97979700	    -0.39780400
 C	     0.05356100	    -0.05255800	    -1.19187000
 C	    -0.92175000	     0.67651100	    -2.21960800
 C	    -2.26305700	     1.05658100	    -1.62647300
 C	    -2.36757800	     2.17969300	    -0.76769300
 C	    -1.33071000	     3.15688300	    -0.63127400
 C	    -1.45102300	     4.21787600	     0.22957300
 C	    -2.61620900	     4.37962000	     1.02939100
 C	    -3.64918200	     3.48961600	     0.90960400
 C	    -3.57117100	     2.38633000	     0.00439800
 C	    -4.64377300	     1.50517600	    -0.14561000
 C	    -4.60159900	     0.46070300	    -1.07132800
 C	    -3.39959400	     0.23555000	    -1.84543600
 C	    -3.43969200	    -0.82719600	    -2.80774000
 C	    -4.55120900	    -1.61328700	    -2.96773000
 C	    -5.71139200	    -1.41299000	    -2.16645700
 C	    -5.73064600	    -0.39998900	    -1.24687800
 C	     1.10463100	    -0.88517600	    -2.04163400
 C	     2.42331100	    -1.20186300	    -1.35834600
 C	     3.58701500	    -0.44684800	    -1.66343400
 C	     3.63637400	     0.57047600	    -2.67408400
 C	     4.77889500	     1.28458500	    -2.92618200
 C	     5.97170600	     1.04551900	    -2.18651600
 C	     5.98341800	     0.07452700	    -1.22321100
 C	     4.81487100	    -0.70010000	    -0.93935100
 C	     4.84607700	    -1.68122300	     0.05198900
 C	     3.72605000	    -2.46369800	     0.33460100
 C	     2.50145900	    -2.24719000	    -0.40231800
 C	     1.41739600	    -3.14140500	    -0.12862400
 C	     1.50859300	    -4.11393100	     0.83435200
 C	     2.69640000	    -4.27363100	     1.60066100
 C	     3.77798300	    -3.47559100	     1.34291800
 C	    -0.81146800	    -0.97569800	    -0.35928000
 N	    -1.15532800	    -0.92627300	     0.87624400
 C	    -2.04706200	    -2.08735100	     1.15813700
 C	    -3.33923600	    -1.71943700	     1.90897400
 C	    -4.32046100	    -2.90219700	     1.87767000
 C	    -3.07073600	    -1.32096300	     3.36263200
 C	    -2.29867300	    -2.66676100	    -0.24800800
 O	    -1.34121100	    -1.97373900	    -1.09489600
 N	     0.88826700	     1.14605700	     0.86818600
 C	     3.48384600	     3.43332300	     2.54004000
 H	     4.27680600	     0.77952500	     2.91442500
 H	     3.09778800	     0.03744800	     1.82340000
 H	     4.32920200	     1.14142100	     1.18604200
 H	     2.10706100	     1.90517800	     3.16212200
 H	     1.00767300	     3.13668500	     1.43582800
 H	     2.18410200	     3.70476300	    -0.56063000
 H	     3.34409700	     2.36045400	    -0.36852500
 H	    -0.38436400	     1.54064600	    -2.61313300
 H	    -1.04802900	    -0.00813200	    -3.05520600
 H	    -0.44227000	     3.08072200	    -1.24265200
 H	    -0.65230200	     4.95143100	     0.29459900
 H	    -2.68623700	     5.21675300	     1.71767900
 H	    -4.55771100	     3.60801300	     1.49421600
 H	    -5.53817900	     1.64733500	     0.45598800
 H	    -2.57768500	    -1.02392100	    -3.43151500
 H	    -4.54701500	    -2.40322800	    -3.71363600
 H	    -6.57607500	    -2.05719900	    -2.29724300
 H	    -6.60987000	    -0.21889000	    -0.63407900
 H	     0.59890500	    -1.79602300	    -2.36519900
 H	     1.28213400	    -0.31032200	    -2.94791200
 H	     2.75316900	     0.79796600	    -3.25477500
 H	     4.77501200	     2.04506200	    -3.70221000
 H	     6.86419200	     1.62800600	    -2.39644800
 H	     6.88374000	    -0.13382500	    -0.65094900
 H	     5.76282500	    -1.84003200	     0.61458100
 H	     0.51373200	    -3.07689700	    -0.71569700
 H	     0.66762000	    -4.77992900	     1.00664400
 H	     2.74506900	    -5.03928200	     2.36940800
 H	     4.70561700	    -3.59779200	     1.89604900
 H	    -1.46680500	    -2.78721400	     1.77176600
 H	    -3.79253400	    -0.87168000	     1.37898600
 H	    -5.22364600	    -2.65338600	     2.44580900
 H	    -4.63681400	    -3.16507200	     0.86279000
 H	    -3.87345200	    -3.79321500	     2.33784400
 H	    -2.42616900	    -0.44157400	     3.44522400
 H	    -2.59459100	    -2.14499200	     3.90882800
 H	    -4.01471800	    -1.08336600	     3.86792800
 H	    -3.28918600	    -2.43382600	    -0.63969700
 H	    -2.10594200	    -3.73637800	    -0.33304100
 H	     2.80397500	     4.27033800	     2.74061100
 H	     4.14380300	     3.31964400	     3.40736100
 H	     4.11215700	     3.70543300	     1.68155200
 Co	    -0.25944200	     0.27596100	     2.34206000
 H	     0.52981500	    -0.73688000	     3.42837500
 H	    -1.10595400	     1.53005800	     3.07383800

