62
CoH2L34.xyz
 C	    -1.00569000	    -1.81545500	     3.18854900
 C	     0.23674800	    -1.91277100	     2.56129600
 C	     0.36800400	    -1.35525600	     1.29544400
 C	     1.64143900	    -1.41186800	     0.56211200
 N	     1.78974600	    -0.92054900	    -0.61687800
 C	     3.20034800	    -1.09917500	    -1.00365100
 C	     3.97240200	     0.19956200	    -0.93294300
 C	     3.76505400	     1.35545400	    -1.68358800
 C	     4.56825100	     2.47044400	    -1.43176100
 C	     5.56077300	     2.41969700	    -0.44524700
 C	     5.76412500	     1.25671100	     0.30287900
 C	     4.96064700	     0.14354200	     0.05526000
 C	     5.01240300	    -1.21536500	     0.71785500
 C	     3.79438500	    -1.96171800	     0.15334400
 O	     2.69764800	    -1.99973400	     1.13596800
 N	    -0.63995000	    -0.72691300	     0.64348800
 C	    -1.83437900	    -0.61773400	     1.25115900
 C	    -2.95208800	     0.13576800	     0.55954700
 C	    -2.58146500	     1.63481600	     0.48016600
 C	    -3.73110900	     2.58542100	     0.08621500
 C	    -3.31069800	     3.98755000	     0.60477400
 C	    -2.09408800	     3.74958300	     1.53820200
 C	    -2.09234700	     2.23832600	     1.81032900
 C	    -3.31186300	    -0.51470400	    -0.79446000
 C	    -3.39015300	    -2.05432300	    -0.74468500
 C	    -4.18219300	    -2.40913500	    -2.00586600
 C	    -5.30645900	    -1.35791900	    -2.02425000
 C	    -4.68742300	    -0.08522800	    -1.38274700
 C	    -2.03915400	    -1.16482100	     2.52982700
 H	    -1.15774100	    -2.23876900	     4.17638900
 H	     1.07885300	    -2.40429800	     3.03313200
 H	     3.24964200	    -1.57893400	    -1.98432000
 H	     2.98640900	     1.39133800	    -2.44016200
 H	     4.42007500	     3.38233800	    -2.00318500
 H	     6.17829700	     3.29395500	    -0.25812800
 H	     6.53585700	     1.22297100	     1.06760000
 H	     5.93248600	    -1.75171100	     0.45625600
 H	     4.97009700	    -1.16635200	     1.81105300
 H	     3.99841800	    -2.99891300	    -0.11196100
 H	    -3.83085000	     0.04589000	     1.21265100
 H	    -1.77121300	     1.74174500	    -0.25191600
 H	    -3.92686600	     2.58246500	    -0.98885300
 H	    -4.65445100	     2.26210800	     0.58333800
 H	    -4.13792300	     4.46372800	     1.14253800
 H	    -3.04501800	     4.65544500	    -0.22132300
 H	    -1.16617300	     4.02270900	     1.02139700
 H	    -2.14028000	     4.34590100	     2.45589900
 H	    -2.80541400	     1.99011400	     2.61055000
 H	    -1.10940300	     1.86551300	     2.11733600
 H	    -2.53085800	    -0.25531900	    -1.52016100
 H	    -3.94461900	    -2.37306400	     0.15082800
 H	    -2.40189600	    -2.52368600	    -0.71039300
 H	    -4.55751100	    -3.43872100	    -2.00974000
 H	    -3.53400400	    -2.28796700	    -2.88367700
 H	    -6.14876000	    -1.71107200	    -1.41655600
 H	    -5.69411700	    -1.17317900	    -3.03176100
 H	    -5.34146400	     0.30596600	    -0.59623900
 H	    -4.56439400	     0.71505700	    -2.11781000
 H	    -3.01437300	    -1.06506800	     2.99329100
 Co	     0.03759600	    -0.12365300	    -1.42883000
 H	     0.02221400	     1.49520800	    -1.83272000
 H	    -0.49266200	    -1.15507700	    -2.63550600

