52
CoH2L5.xyz
 C	    -0.67822100	     2.86550500	     0.97752900
 C	    -0.04112900	     1.90686200	    -0.06255400
 C	     0.61575600	     2.72285200	    -1.20954500
 C	    -1.15087500	     1.06172500	    -0.64992700
 N	    -1.31108100	    -0.21238000	    -0.64096100
 C	    -2.62184300	    -0.50733900	    -1.26507000
 C	    -3.67472200	    -0.84442900	    -0.23151400
 C	    -3.68484100	    -1.91327700	     0.66326300
 C	    -4.74344200	    -2.01937600	     1.56908000
 C	    -5.77213300	    -1.06944000	     1.57200200
 C	    -5.75795800	    -0.00155400	     0.67029200
 C	    -4.70109200	     0.10682900	    -0.23350500
 C	    -4.49019500	     1.14897500	    -1.30864000
 C	    -3.07860900	     0.86197500	    -1.83876900
 O	    -2.10657200	     1.78998600	    -1.25451300
 C	     1.05876400	     1.11381000	     0.60907300
 N	     1.28803200	    -0.14872800	     0.58961900
 C	     2.55777500	    -0.39773200	     1.31227200
 C	     3.67562500	    -0.78365600	     0.37207500
 C	     3.77859400	    -1.93848000	    -0.40183100
 C	     4.88268700	    -2.08411100	    -1.24534000
 C	     5.86467200	    -1.08764400	    -1.30431000
 C	     5.76009900	     0.06387700	    -0.51893000
 C	     4.65689100	     0.21177800	     0.32209800
 C	     4.35299600	     1.34504500	     1.27639100
 C	     2.96375800	     1.00607500	     1.84485900
 O	     1.93663200	     1.88165400	     1.27823300
 H	     0.08674200	     3.52721400	     1.38791100
 H	    -1.13492100	     2.30112900	     1.79710000
 H	    -1.44816400	     3.47104500	     0.49553400
 H	     1.05900400	     2.05471100	    -1.95490900
 H	     1.39902900	     3.36531500	    -0.80067700
 H	    -0.13629600	     3.34805000	    -1.69548500
 H	    -2.48917500	    -1.28594700	    -2.01972800
 H	    -2.87775700	    -2.64017100	     0.66465200
 H	    -4.76705300	    -2.84368300	     2.27633700
 H	    -6.58901800	    -1.16267900	     2.28251600
 H	    -6.55890900	     0.73332800	     0.67568800
 H	    -5.22147000	     1.03856300	    -2.11862000
 H	    -4.57125300	     2.17743400	    -0.94122800
 H	    -2.98571800	     0.95868300	    -2.92082100
 H	     2.37572100	    -1.13852100	     2.09442500
 H	     3.01000300	    -2.70453400	    -0.35684800
 H	     4.97851200	    -2.97498300	    -1.85954500
 H	     6.71818400	    -1.21195800	    -1.96525300
 H	     6.52863500	     0.83127700	    -0.56392000
 H	     4.34334100	     2.32656100	     0.79017700
 H	     5.09177700	     1.39520200	     2.08493400
 H	     2.89771800	     1.11668200	     2.92691400
 Co	     0.10550400	    -1.66667700	    -0.18656600
 H	     0.52241500	    -2.38645800	    -1.64341300
 H	    -0.19443000	    -2.75096800	     1.05717500

