104
CoH2L103.xyz
 C	    -0.56453800	    -2.01288000	     1.20087300
 C	     0.14905100	    -2.91294900	     0.21723300
 C	    -0.89892700	    -3.93918300	    -0.34322700
 C	    -2.03979000	    -3.27397400	    -1.07747900
 C	    -3.21860800	    -2.93576500	    -0.40105000
 C	    -4.25029000	    -2.26286400	    -1.05635400
 C	    -4.11611800	    -1.91502000	    -2.40172100
 C	    -2.94965000	    -2.25682500	    -3.09010800
 C	    -1.92196300	    -2.93477600	    -2.43296400
 C	     1.28425000	    -3.69058600	     0.97611000
 C	     2.37349200	    -2.76917200	     1.46995400
 C	     3.50686800	    -2.53352900	     0.68244100
 C	     4.46850100	    -1.60336000	     1.07531000
 C	     4.31178100	    -0.89329200	     2.26628600
 C	     3.19536200	    -1.13504300	     3.07044400
 C	     2.23563200	    -2.06813700	     2.67604600
 C	     0.78935100	    -2.18360600	    -0.94264300
 N	     0.92399200	    -0.92633700	    -1.14879600
 C	     1.69136100	    -0.74618400	    -2.39990000
 C	     3.11428500	    -0.29716600	    -2.15677300
 C	     3.54175900	     0.88348700	    -1.56027600
 C	     4.91698300	     1.13309100	    -1.42137500
 C	     5.37006200	     2.42086700	    -0.83184500
 C	     4.82731000	     3.59886300	    -1.32050400
 C	     5.21606100	     4.86132700	    -0.82101200
 C	     6.15795700	     4.94940600	     0.17703300
 C	     6.73282500	     3.77401800	     0.72781800
 C	     6.33548800	     2.48648100	     0.23022200
 C	     6.89638800	     1.33307300	     0.84555300
 C	     7.81199300	     1.44059400	     1.86969600
 C	     8.22013800	     2.71188800	     2.33851100
 C	     7.68623400	     3.85021900	     1.77947300
 C	     5.83027200	     0.17444900	    -1.90122400
 C	     5.39469100	    -1.01621400	    -2.48546300
 C	     4.02595300	    -1.25521500	    -2.60882900
 C	     3.32677600	    -2.45115000	    -3.21527300
 C	     1.83365800	    -2.18589100	    -2.96389400
 O	     1.31704100	    -3.01144500	    -1.86817600
 N	    -0.78395200	    -0.75094400	     1.15282400
 C	    -1.60949500	    -0.38995300	     2.32680200
 C	    -1.60838800	    -1.67564700	     3.19445500
 C	    -3.06375500	    -2.00306600	     3.55219500
 C	    -3.87410800	    -1.12073800	     2.63023600
 C	    -3.06462100	    -0.20018100	     1.95775100
 C	    -3.59830800	     0.70213000	     1.04493900
 C	    -4.97917700	     0.69394100	     0.79210000
 C	    -5.54090200	     1.57553000	    -0.26380000
 C	    -6.69194300	     2.40487100	    -0.04208400
 C	    -7.32190400	     2.53720800	     1.22681800
 C	    -8.42586500	     3.34429100	     1.39489600
 C	    -8.96024700	     4.06879000	     0.30281500
 C	    -8.36025900	     3.98673900	    -0.93295200
 C	    -7.21419900	     3.17156900	    -1.13862400
 C	    -6.57024900	     3.11785400	    -2.40304900
 C	    -5.44417100	     2.34769000	    -2.57945300
 C	    -4.93462100	     1.57762400	    -1.51040800
 C	    -5.79112000	    -0.22672200	     1.48293000
 C	    -5.24885700	    -1.13092500	     2.39727200
 O	    -1.05291600	    -2.67287100	     2.27194400
 H	    -0.35924200	    -4.62526600	    -0.99997700
 H	    -1.27262200	    -4.51535400	     0.50658300
 H	    -3.32972900	    -3.19997300	     0.64602600
 H	    -5.15262500	    -2.00487500	    -0.51280900
 H	    -4.91617000	    -1.38436400	    -2.90965700
 H	    -2.84089300	    -2.00089900	    -4.14057100
 H	    -1.02466600	    -3.21194300	    -2.97835300
 H	     1.69093300	    -4.42972800	     0.28142800
 H	     0.81307700	    -4.22943800	     1.80128100
 H	     3.63146800	    -3.07571600	    -0.25007600
 H	     5.33127600	    -1.43092300	     0.44119400
 H	     5.05222900	    -0.15662300	     2.56341600
 H	     3.06993200	    -0.59530600	     4.00504200
 H	     1.37477700	    -2.25619900	     3.31127100
 H	     1.13756300	    -0.06708600	    -3.05239100
 H	     2.82036100	     1.59995700	    -1.18001000
 H	     4.09948700	     3.54898500	    -2.12501600
 H	     4.77149200	     5.75986000	    -1.23937300
 H	     6.47158900	     5.91565000	     0.56371300
 H	     6.58694200	     0.35286800	     0.50787700
 H	     8.22027700	     0.54186600	     2.32383500
 H	     8.94527700	     2.78466800	     3.14427600
 H	     7.97999800	     4.83305600	     2.13964200
 H	     6.89506000	     0.37376300	    -1.83009600
 H	     6.11963500	    -1.74032300	    -2.84811800
 H	     3.51811100	    -2.52465600	    -4.29247700
 H	     3.63577400	    -3.40347700	    -2.77088600
 H	     1.20325100	    -2.39650800	    -3.82796200
 H	    -1.16683300	     0.47977100	     2.81714900
 H	    -0.93912900	    -1.64530700	     4.05490900
 H	    -3.24738900	    -1.75843300	     4.60570000
 H	    -3.27305700	    -3.07110300	     3.43075300
 H	    -2.95285200	     1.39527000	     0.51411300
 H	    -6.91380200	     2.00435400	     2.07796300
 H	    -8.88552000	     3.43234800	     2.37548200
 H	    -9.83407200	     4.69808000	     0.44712600
 H	    -8.74883500	     4.55409700	    -1.77507900
 H	    -6.97939800	     3.70286300	    -3.22282600
 H	    -4.94564100	     2.31393100	    -3.54408600
 H	    -4.06394100	     0.95063300	    -1.67408600
 H	    -6.85584800	    -0.25535600	     1.27309500
 H	    -5.89300700	    -1.84535600	     2.90315600
 Co	     0.11139400	     0.66126800	    -0.08030200
 H	     1.06192100	     1.64556300	     0.88170900
 H	    -0.83052100	     1.54198200	    -1.15664500

