100
CoH2L83.xyz
 C	     0.12054500	    -1.02657300	    -2.71094200
 C	     0.00692500	     0.00992600	    -1.56336700
 C	    -0.11165300	     1.45119700	    -2.19376900
 C	    -0.08082900	     2.58361100	    -1.19486600
 C	     1.14194200	     3.08113600	    -0.72176300
 C	     1.17981100	     4.09670500	     0.23302300
 C	    -0.00928000	     4.64342900	     0.72195900
 C	    -1.23186700	     4.17377200	     0.23921400
 C	    -1.26553100	     3.15044700	    -0.71043700
 C	     1.27618800	    -0.03316000	    -0.74175800
 N	     1.43950000	    -0.14597600	     0.52184900
 C	     2.86688000	     0.03896900	     0.83908900
 C	     3.39841600	    -1.01476000	     1.77915600
 C	     4.28861100	    -0.64938100	     2.79252800
 C	     4.85419200	    -1.61863500	     3.62356200
 C	     4.52547400	    -2.96362000	     3.44911300
 C	     3.61965600	    -3.33244300	     2.45046000
 C	     3.05678300	    -2.36333600	     1.62276100
 C	     3.55704000	     0.10652900	    -0.59012800
 C	     4.33977500	     1.38372200	    -0.85554700
 C	     4.96503600	     2.10368200	     0.16629600
 C	     5.69484300	     3.25913400	    -0.12675600
 C	     5.80355200	     3.70759100	    -1.44241200
 C	     5.19075200	     2.98479600	    -2.46973900
 C	     4.47322600	     1.82640400	    -2.17963300
 C	     4.37991800	    -1.12915000	    -0.92667000
 C	     3.83291300	    -2.19431200	    -1.64743200
 C	     4.57889000	    -3.35461000	    -1.86684700
 C	     5.87426000	    -3.46420700	    -1.36205000
 C	     6.42613000	    -2.39936600	    -0.64515600
 C	     5.68721500	    -1.23710800	    -0.43577900
 O	     2.38704300	     0.13075100	    -1.48253800
 C	    -1.24684100	    -0.29102000	    -0.77320400
 N	    -1.41805300	    -0.37332500	     0.49130000
 C	    -2.80629700	    -0.78632200	     0.76619400
 C	    -3.45725100	     0.07736500	     1.81857600
 C	    -3.31436500	     1.46868200	     1.79685000
 C	    -3.96338300	     2.25860000	     2.74325400
 C	    -4.76130900	     1.66478400	     3.72506700
 C	    -4.89250200	     0.27557600	     3.76366800
 C	    -4.23722200	    -0.51403800	     2.81655800
 C	    -3.47492300	    -0.80637600	    -0.67587200
 C	    -4.53573900	     0.26261900	    -0.91116200
 C	    -5.75594400	     0.18790800	    -0.22591500
 C	    -6.72278200	     1.17586100	    -0.39342200
 C	    -6.49409200	     2.24552100	    -1.26380800
 C	    -5.29440200	     2.30918800	    -1.97055100
 C	    -4.32064300	     1.32123200	    -1.79710500
 C	    -4.00028900	    -2.17823900	    -1.07940800
 C	    -3.91308000	    -2.58627800	    -2.41659800
 C	    -4.43307500	    -3.81708900	    -2.81503300
 C	    -5.06145800	    -4.65002300	    -1.88622900
 C	    -5.16413400	    -4.24198400	    -0.55621700
 C	    -4.63482500	    -3.01401700	    -0.15396900
 O	    -2.32844300	    -0.50594500	    -1.54288900
 H	    -0.74269000	    -0.94442000	    -3.37329900
 H	     1.02625700	    -0.83717500	    -3.28924400
 H	     0.15894700	    -2.04477200	    -2.31122900
 H	    -1.04008600	     1.46789700	    -2.77109000
 H	     0.71541500	     1.54633900	    -2.90265600
 H	     2.07175800	     2.68363000	    -1.11220800
 H	     2.13978300	     4.46230200	     0.58723100
 H	     0.01721900	     5.43528600	     1.46518300
 H	    -2.16290400	     4.60153200	     0.60093800
 H	    -2.22230400	     2.79612000	    -1.08050400
 H	     2.94658800	     1.01475600	     1.32211900
 H	     4.53894200	     0.39854200	     2.93347900
 H	     5.54556300	    -1.32124400	     4.40706400
 H	     4.96496600	    -3.72061200	     4.09276700
 H	     3.34992900	    -4.37633100	     2.31731900
 H	     2.35381800	    -2.65322800	     0.84948100
 H	     4.89756000	     1.77273900	     1.19614800
 H	     6.17293100	     3.80742200	     0.67988100
 H	     6.36312400	     4.61085900	    -1.66812100
 H	     5.27301600	     3.32227300	    -3.49905800
 H	     4.00252800	     1.26770200	    -2.98174000
 H	     2.82391600	    -2.12645900	    -2.03570700
 H	     4.14043700	    -4.17383000	    -2.42998100
 H	     6.45135700	    -4.36964100	    -1.52715700
 H	     7.43530200	    -2.47169100	    -0.24963900
 H	     6.12507800	    -0.41588700	     0.12168300
 H	    -2.75798200	    -1.80974600	     1.14257000
 H	    -2.68773700	     1.93090400	     1.04443600
 H	    -3.84249100	     3.33800400	     2.71701100
 H	    -5.26884100	     2.28109000	     4.46203200
 H	    -5.49741100	    -0.19542500	     4.53345900
 H	    -4.33152800	    -1.59592700	     2.85534200
 H	    -5.94724300	    -0.63680600	     0.45113600
 H	    -7.65687100	     1.10919100	     0.15705900
 H	    -7.24840400	     3.01647000	    -1.39314300
 H	    -5.10844200	     3.12653500	    -2.66183600
 H	    -3.39696200	     1.37474200	    -2.35933900
 H	    -3.43363100	    -1.94171000	    -3.14503500
 H	    -4.34886500	    -4.12391100	    -3.85389000
 H	    -5.46738300	    -5.60837100	    -2.19740400
 H	    -5.65126900	    -4.87960800	     0.17604500
 H	    -4.72526400	    -2.71633300	     0.88517600
 Co	    -0.00969600	    -0.29926700	     2.03089200
 H	     0.08924500	     1.01213500	     3.06377000
 H	    -0.15405600	    -1.79051900	     2.79554700

