65
CoH2L30.xyz
 C	    -3.26639300	     3.73345300	     2.23126300
 C	    -2.99483800	     2.48928500	     2.80071000
 C	    -2.98682200	     1.33842800	     2.00728000
 C	    -3.24775300	     1.41963200	     0.63550600
 C	    -3.29284800	     0.19298200	    -0.27026000
 C	    -4.70750700	    -0.32251200	    -0.51832600
 C	    -5.74390700	    -0.14355300	     0.40439800
 C	    -7.01404400	    -0.66901700	     0.15354900
 C	    -7.26306700	    -1.37569300	    -1.02403500
 C	    -6.23374500	    -1.55482700	    -1.95233800
 C	    -4.96597600	    -1.03224300	    -1.69891100
 C	    -2.37266800	    -0.91029600	     0.22049400
 C	    -2.79967700	    -1.95378000	     1.05513500
 C	    -1.88307800	    -2.90149200	     1.49556400
 C	    -0.55178900	    -2.81151800	     1.08226400
 C	    -0.20861100	    -1.76019400	     0.24179700
 C	     1.14667400	    -1.56733400	    -0.29185500
 N	     1.45022200	    -0.59579500	    -1.07710400
 C	     2.86197900	    -0.74529100	    -1.46330700
 C	     3.64359800	     0.54280600	    -1.40474800
 C	     3.37999000	     1.50812500	    -0.42653200
 C	     4.16820900	     2.65537700	    -0.34195100
 C	     5.22922400	     2.84665800	    -1.23060500
 C	     5.49264900	     1.88905100	    -2.21193000
 C	     4.69922700	     0.74403400	    -2.29955300
 C	     3.36738900	    -1.88136400	    -0.48405500
 C	     4.24114200	    -1.41993400	     0.65125600
 C	     3.70359600	    -0.98766300	     1.86784400
 C	     4.53904100	    -0.47443600	     2.86107200
 C	     5.91504900	    -0.38270800	     2.64432500
 C	     6.45596600	    -0.81958500	     1.43277800
 C	     5.62293300	    -1.34139300	     0.44404300
 O	     2.11093200	    -2.43337200	     0.04142800
 N	    -1.09491000	    -0.82756500	    -0.17123800
 C	    -3.51837000	     2.67358300	     0.07167200
 C	    -3.52879800	     3.82199200	     0.86112300
 H	    -3.26955600	     4.62828600	     2.84738900
 H	    -2.78733600	     2.40922300	     3.86439200
 H	    -2.77107000	     0.37772900	     2.46528800
 H	    -2.88443200	     0.50034000	    -1.24085500
 H	    -5.56168300	     0.41325500	     1.31820200
 H	    -7.80954700	    -0.52047200	     0.87882800
 H	    -8.25235700	    -1.77974200	    -1.22039000
 H	    -6.41937900	    -2.09735900	    -2.87539300
 H	    -4.16575400	    -1.17064000	    -2.42217400
 H	    -3.84120500	    -2.01032000	     1.34820800
 H	    -2.19889400	    -3.70783300	     2.14962200
 H	     0.19292400	    -3.53428300	     1.39324400
 H	     2.88717400	    -1.13010200	    -2.48813100
 H	     2.55952200	     1.36063200	     0.26720200
 H	     3.95370200	     3.39964000	     0.41980700
 H	     5.84346200	     3.74021500	    -1.16193700
 H	     6.31068200	     2.03423800	    -2.91207900
 H	     4.90227100	    -0.00119600	    -3.06494400
 H	     3.84991400	    -2.68084200	    -1.04602100
 H	     2.63538300	    -1.05357300	     2.04654700
 H	     4.11190500	    -0.14207800	     3.80306600
 H	     6.56314900	     0.02253300	     3.41626600
 H	     7.52636700	    -0.75748500	     1.25825500
 H	     6.04421400	    -1.67643300	    -0.50001100
 H	    -3.71947400	     2.74438200	    -0.99405800
 H	    -3.73479100	     4.78675800	     0.40577000
 Co	    -0.21217300	     0.65964700	    -1.50969000
 H	    -0.12220000	     2.23587800	    -0.99563600
 H	    -0.80959600	     0.42583700	    -3.05383900

