64
CoH2L112.xyz
 C	     1.18714400	     0.60474300	    -0.23476700
 C	     0.02200800	     1.51377400	     0.06301400
 C	    -0.14787800	     2.52547100	    -1.14131000
 C	     0.50569800	     3.79513200	    -0.66123400
 C	     0.78648100	     4.94209800	    -1.40144900
 C	     1.38373800	     6.03214700	    -0.76128100
 C	     1.69220700	     5.97111900	     0.60208300
 C	     1.40764700	     4.81924400	     1.34173400
 C	     0.81421900	     3.73371400	     0.69986600
 C	     0.40969800	     2.41366800	     1.30370500
 C	    -1.28796400	     0.81318300	     0.30868700
 N	    -1.58920200	    -0.42810600	     0.19215500
 C	    -3.02558500	    -0.59771400	     0.50170700
 C	    -3.76813400	    -1.21860900	    -0.69282400
 C	    -5.22446100	    -1.46698000	    -0.37679600
 C	    -6.22735900	    -0.62447300	    -0.87279400
 C	    -7.56813300	    -0.83627500	    -0.54163300
 C	    -7.92377600	    -1.89695500	     0.29293800
 C	    -6.93147800	    -2.74601100	     0.79156900
 C	    -5.59412200	    -2.53138000	     0.45882700
 C	    -3.48039900	     0.83491900	     0.85903600
 O	    -2.27848400	     1.64527900	     0.67678400
 N	     1.24168400	    -0.67696300	    -0.28579800
 C	     2.64440400	    -1.07421600	    -0.54387400
 C	     3.20623700	    -1.84222300	     0.66568300
 C	     4.61985200	    -2.31513100	     0.42268200
 C	     5.71098100	    -1.67016700	     1.01875200
 C	     7.01872400	    -2.08687900	     0.75745100
 C	     7.25230400	    -3.15705900	    -0.10750100
 C	     6.17084300	    -3.80963100	    -0.70656900
 C	     4.86674800	    -3.39124200	    -0.44260900
 C	     3.34159300	     0.27435900	    -0.81781600
 O	     2.33140800	     1.26931300	    -0.46697100
 H	     0.30045600	     2.12472100	    -2.05520300
 H	    -1.21165300	     2.68182000	    -1.34725600
 H	     0.54984600	     4.98822400	    -2.46133700
 H	     1.61347200	     6.93046600	    -1.32765800
 H	     2.15996500	     6.82242900	     1.08890500
 H	     1.65059200	     4.77091400	     2.40011200
 H	    -0.45434200	     2.52685700	     1.96465600
 H	     1.20572100	     1.94759100	     1.89195500
 H	    -3.10839600	    -1.26818600	     1.36149900
 H	    -3.26424400	    -2.15708100	    -0.94937900
 H	    -3.66946100	    -0.54675800	    -1.55351200
 H	    -5.95639000	     0.19827100	    -1.52996800
 H	    -8.33299500	    -0.17427000	    -0.93888100
 H	    -8.96605200	    -2.06490800	     0.54995400
 H	    -7.20036700	    -3.57838100	     1.43645400
 H	    -4.82637300	    -3.19808500	     0.84487800
 H	    -4.24745400	     1.23100800	     0.19094700
 H	    -3.80059400	     0.94901200	     1.89566500
 H	     2.66479700	    -1.72035500	    -1.42455600
 H	     2.54232000	    -2.69173100	     0.86001100
 H	     3.16646300	    -1.18705800	     1.54419400
 H	     5.53349700	    -0.84043500	     1.69879100
 H	     7.85265900	    -1.57665100	     1.23205400
 H	     8.26835600	    -3.48379900	    -0.31113100
 H	     6.34373400	    -4.64752700	    -1.37666800
 H	     4.02857600	    -3.90586100	    -0.90692400
 H	     4.21695200	     0.45761900	    -0.19353800
 H	     3.59899700	     0.42527200	    -1.86820100
 Co	    -0.33186000	    -2.03000600	    -0.21530600
 H	    -0.51071400	    -2.74436500	    -1.72285000
 H	    -0.34532500	    -3.09161000	     1.08557700

