88
CoH2L12.xyz
 C	     6.32869500	     5.25421100	     2.65524700
 C	     5.96415900	     4.02968800	     1.85235100
 C	     5.21344700	     2.99525000	     2.41736700
 C	     4.88729600	     1.84055000	     1.69700200
 C	     4.06682900	     0.75480800	     2.35208500
 C	     5.33200400	     1.71563700	     0.36557100
 C	     4.99307000	     0.49257800	    -0.42089600
 C	     5.97422500	    -0.47780900	    -0.69010100
 C	     5.67526700	    -1.63359000	    -1.41426900
 C	     4.37322000	    -1.82827400	    -1.87366600
 C	     3.39190400	    -0.86863100	    -1.60603000
 C	     3.68775100	     0.28835800	    -0.89067400
 C	     2.04833200	    -1.29939000	    -2.15147500
 N	     1.06041200	    -1.52530600	    -1.07260900
 C	     0.92572500	    -2.79608600	    -0.92474900
 C	     0.11350500	    -3.51421000	     0.07821300
 C	    -0.72216200	    -2.73641000	     1.01604600
 N	    -0.95062000	    -1.47063200	     1.01095100
 C	    -1.89706700	    -1.17495600	     2.11011400
 C	    -3.28078500	    -0.83915900	     1.60345300
 C	    -3.66292100	     0.26212600	     0.84179700
 C	    -4.99973600	     0.38940600	     0.43914900
 C	    -5.43644900	     1.55980800	    -0.37956300
 C	    -5.19635300	     1.57601600	    -1.76809100
 C	    -4.49852700	     0.42233800	    -2.44726000
 C	    -5.61565000	     2.68046800	    -2.51711800
 C	    -6.25964500	     3.77126700	    -1.92460100
 C	    -6.67040000	     4.96785000	    -2.74713000
 C	    -6.48921800	     3.73332400	    -0.54602400
 C	    -6.08784600	     2.64592100	     0.23731700
 C	    -6.34661100	     2.65045700	     1.72519500
 C	    -5.92365600	    -0.60051700	     0.81687900
 C	    -5.53751100	    -1.70069500	     1.58512800
 C	    -4.20543700	    -1.81762300	     1.98074600
 C	    -3.56982700	    -2.88817400	     2.83861800
 C	    -2.07174300	    -2.54157800	     2.83305800
 O	    -1.32160900	    -3.46321000	     1.97702600
 C	     0.70599600	    -4.83743900	     0.60609800
 C	    -0.43673800	    -4.89765700	    -0.33028800
 O	     1.61486800	    -3.58631300	    -1.76845400
 C	     2.30889500	    -2.72030700	    -2.72609900
 C	     3.82328700	    -2.97388500	    -2.69274600
 C	     6.08800800	     2.74905900	    -0.22517200
 C	     6.55477800	     2.65015800	    -1.65841500
 C	     6.38877800	     3.88863700	     0.52710500
 H	     5.62109900	     5.42046300	     3.47447300
 H	     6.34463300	     6.15338800	     2.02913700
 H	     7.32776800	     5.15335500	     3.10132300
 H	     4.87028600	     3.08727500	     3.44575700
 H	     3.04640200	     0.72415900	     1.94951000
 H	     4.50446800	    -0.23664800	     2.18817600
 H	     3.99342200	     0.92326600	     3.43139300
 H	     6.98320000	    -0.32275400	    -0.31800000
 H	     6.44947600	    -2.37096500	    -1.61030900
 H	     2.91434400	     1.02125900	    -0.68095500
 H	     1.62939100	    -0.59664900	    -2.87556500
 H	    -1.46939200	    -0.39087500	     2.73968200
 H	    -2.93463700	     1.01323400	     0.55022400
 H	    -3.44261600	     0.36528800	    -2.15383200
 H	    -4.53759000	     0.53078900	    -3.53591500
 H	    -4.95524700	    -0.53826300	    -2.18138500
 H	    -5.43415300	     2.68773000	    -3.58999400
 H	    -7.50905000	     5.50150500	    -2.28694500
 H	    -5.84261500	     5.68352300	    -2.84498300
 H	    -6.96531500	     4.67521700	    -3.76104800
 H	    -6.99036700	     4.57146400	    -0.06611900
 H	    -7.03659100	     1.85062100	     2.02050900
 H	    -6.78141300	     3.60354300	     2.04223000
 H	    -5.42170100	     2.49199500	     2.29263400
 H	    -6.95827600	    -0.50196400	     0.49970100
 H	    -6.26905900	    -2.45279400	     1.86927600
 H	    -3.73568700	    -3.90221600	     2.45905100
 H	    -3.95890500	    -2.86218000	     3.86339600
 H	    -1.60846100	    -2.59444800	     3.81814400
 H	     0.53227500	    -5.03631500	     1.65726500
 H	     1.69589800	    -5.07988000	     0.23663600
 H	    -1.41942500	    -5.13635500	     0.06084700
 H	    -0.25652600	    -5.18276800	    -1.36055200
 H	     1.85266000	    -2.90936800	    -3.69800600
 H	     4.04731300	    -3.95932500	    -2.27071200
 H	     4.22498100	    -2.96297700	    -3.71327300
 H	     5.72557800	     2.41128400	    -2.33466900
 H	     7.00195900	     3.59368300	    -1.98685600
 H	     7.30505300	     1.86109100	    -1.78999700
 H	     6.96347800	     4.68823200	     0.06401800
 Co	    -0.07203700	    -0.01483000	    -0.19400300
 H	    -0.97517700	     0.67789900	    -1.42549800
 H	     0.67755600	     1.08547700	     0.82732900

