53
CoH2L93.xyz
 C	    -1.14861100	     0.91357800	    -0.64273800
 C	    -0.02949500	     1.71852900	    -0.05773500
 C	     0.60037500	     2.78018300	    -1.05284900
 C	     0.36200100	     3.90413000	    -0.01816800
 C	    -0.51625700	     2.94261700	     0.81602800
 C	     1.05308700	     0.93291800	     0.61493400
 N	     1.27359600	    -0.33236000	     0.58949600
 C	     2.54655000	    -0.59062300	     1.30184700
 C	     3.66460600	    -0.93951900	     0.34624100
 C	     3.76406900	    -2.05895000	    -0.47848600
 C	     4.86775200	    -2.17029600	    -1.32777000
 C	     5.85305200	    -1.17549200	    -1.34250800
 C	     5.75181800	    -0.05952500	    -0.50696100
 C	     4.64899300	     0.05428900	     0.33982600
 C	     4.34735800	     1.14480600	     1.34329600
 C	     2.94446000	     0.80104300	     1.87064300
 O	     1.93581200	     1.69007900	     1.29133600
 N	    -1.33582800	    -0.35834900	    -0.63295500
 C	    -2.65081800	    -0.62609600	    -1.25831900
 C	    -3.07453100	     0.75054200	    -1.84046100
 C	    -4.48399800	     1.06798900	    -1.32268600
 C	    -4.72060000	     0.03961600	    -0.23961200
 C	    -3.71425300	    -0.93272700	    -0.22579900
 C	    -3.74994600	    -1.99368600	     0.67760800
 C	    -4.81409300	    -2.07044300	     1.57988400
 C	    -5.82281400	    -1.09937500	     1.57101200
 C	    -5.78293400	    -0.03938000	     0.66079000
 O	    -2.08859500	     1.66029500	    -1.25152600
 H	     1.63224300	     2.57140000	    -1.34302000
 H	    -0.01402100	     2.87539300	    -1.94871600
 H	    -0.13779700	     4.79930700	    -0.39615800
 H	     1.27570600	     4.19752300	     0.50232600
 H	    -0.29389700	     2.85549100	     1.88056600
 H	    -1.58533600	     3.10893800	     0.68183400
 H	     2.37498300	    -1.35364000	     2.06466400
 H	     2.99244500	    -2.82321200	    -0.46882000
 H	     4.96044900	    -3.03311500	    -1.98128200
 H	     6.70600600	    -1.27284500	    -2.00867700
 H	     6.52220800	     0.70725800	    -0.51840000
 H	     4.36422300	     2.15004500	     0.90875200
 H	     5.07114800	     1.13928900	     2.16701000
 H	     2.84974000	     0.89321500	     2.95243100
 H	    -2.53548800	    -1.41155300	    -2.00874200
 H	    -2.97109700	     0.84092900	    -2.92214900
 H	    -4.54979200	     2.10125400	    -0.96595700
 H	    -5.21130400	     0.96234400	    -2.13690900
 H	    -2.95798500	    -2.73700000	     0.68821600
 H	    -4.85746500	    -2.88816800	     2.29381700
 H	    -6.64416400	    -1.16974100	     2.27901300
 H	    -6.56829200	     0.71217200	     0.65705800
 Co	     0.06138900	    -1.83270700	    -0.17411300
 H	     0.46429300	    -2.57794600	    -1.62075600
 H	    -0.26106100	    -2.89703600	     1.08256300

