60
CoH2L156.xyz
 C	     4.44290900	     0.35412700	    -1.73763200
 C	     3.95469100	    -1.05132400	    -2.11111200
 C	     3.31815300	    -1.79551000	    -0.91258800
 C	     4.28093300	    -1.97713600	     0.27383200
 O	     3.87487500	    -0.94591500	     1.21069900
 C	     2.63093400	    -0.54405100	     0.82016100
 C	     1.94250800	     0.38020500	     1.70130600
 C	     0.74965000	     1.07270100	     1.29646000
 N	     0.08489100	     0.77898900	     0.13792400
 C	    -0.64527700	     1.76970600	    -0.49016900
 C	    -1.94669500	     1.54579500	    -1.03328500
 C	    -2.64733800	     0.28420600	    -0.82849300
 N	    -2.14293400	    -0.82506100	    -0.42187100
 C	    -3.22910300	    -1.80658300	    -0.29103200
 C	    -3.43246500	    -2.20798500	     1.18610600
 C	    -4.48215000	    -3.31827100	     1.30349600
 C	    -3.76915600	    -1.01253800	     2.08268100
 C	    -4.42965800	    -1.09074100	    -0.95196500
 O	    -3.98819400	     0.28436300	    -1.09554400
 C	    -2.60677400	     2.57387900	    -1.73448700
 C	    -2.02927300	     3.82206100	    -1.91167400
 C	    -0.75625700	     4.05948000	    -1.37114100
 C	    -0.08789600	     3.06168900	    -0.68042500
 C	     0.24234400	     2.03941300	     2.21659400
 C	     0.83832100	     2.28278200	     3.43904700
 C	     1.99379200	     1.58248800	     3.83010700
 C	     2.52536700	     0.64794900	     2.95966500
 N	     2.21466800	    -1.02546500	    -0.30834200
 C	     3.00224200	    -0.98945400	    -3.30756000
 H	     4.95728700	     0.81593300	    -2.58852600
 H	     5.14145000	     0.34465900	    -0.89335200
 H	     3.59771100	     0.99846800	    -1.47004300
 H	     4.82869600	    -1.65639100	    -2.39628500
 H	     2.93281200	    -2.75864100	    -1.25959500
 H	     4.16464700	    -2.94747900	     0.76775700
 H	     5.33223400	    -1.81400400	     0.02872100
 H	    -2.95484200	    -2.70566900	    -0.85205400
 H	    -2.46617100	    -2.61071300	     1.51224200
 H	    -4.22017900	    -4.18118600	     0.67885100
 H	    -4.56510500	    -3.66646000	     2.33992400
 H	    -5.47641300	    -2.96955700	     0.99434200
 H	    -3.84461700	    -1.33021900	     3.12947600
 H	    -2.99264200	    -0.24293900	     2.02181100
 H	    -4.72845400	    -0.55334300	     1.81023800
 H	    -4.65699500	    -1.47933400	    -1.94949700
 H	    -5.34143300	    -1.08636200	    -0.35129800
 H	    -3.59338000	     2.36946000	    -2.13574300
 H	    -2.55340800	     4.59819600	    -2.46133500
 H	    -0.27885000	     5.02739300	    -1.50540700
 H	     0.90569000	     3.24902400	    -0.28485400
 H	    -0.66668300	     2.56743000	     1.94881200
 H	     0.39215200	     3.01270100	     4.11100800
 H	     2.45712900	     1.76636300	     4.79469500
 H	     3.41999000	     0.09995800	     3.23367500
 H	     2.66588200	    -1.98954700	    -3.60517900
 H	     3.49615700	    -0.52471600	    -4.17010200
 H	     2.10964900	    -0.40392000	    -3.06584200
 Co	     0.10641300	    -1.22490200	    -0.58080600
 H	    -0.12421200	    -2.70637700	     0.31444400
 H	    -0.15990700	    -1.45450300	    -2.27768500

