61
CoH2L58.xyz
 C	     3.15516400	     5.41113100	     1.05155100
 O	     1.85338700	     4.94622700	     0.69354400
 C	     1.69363600	     3.62076600	     0.47035300
 C	     2.70700200	     2.66329300	     0.56683400
 C	     2.40836700	     1.32387800	     0.31220900
 C	     1.12789100	     0.89326500	    -0.04333300
 P	     0.81418400	    -0.88268000	    -0.39025200
 C	     0.08842300	    -1.51811700	     1.16454600
 C	    -0.55018000	    -2.76743500	     1.12377700
 C	    -1.15680200	    -3.28413700	     2.26782800
 C	    -1.13538300	    -2.55653900	     3.46062700
 C	    -0.49659000	    -1.31575900	     3.50870300
 C	     0.11531500	    -0.79683500	     2.36591600
 C	     2.47645200	    -1.63427500	    -0.48003800
 C	     3.10398500	    -1.66734700	    -1.73539000
 C	     4.37706100	    -2.22103700	    -1.86806100
 C	     5.02610900	    -2.75711100	    -0.75281500
 C	     4.40090100	    -2.73672300	     0.49633700
 C	     3.13041700	    -2.17607600	     0.63545700
 C	     0.10425500	     1.87566200	    -0.14370800
 C	    -1.29916800	     1.57504800	    -0.49468400
 N	    -1.78264400	     0.52705500	    -1.07616300
 C	    -3.26362500	     0.66026800	    -1.10632900
 C	    -3.97087000	    -0.31305200	    -0.11791500
 C	    -3.51671300	    -0.06562600	     1.32946500
 C	    -3.65399600	    -1.76247000	    -0.50892200
 C	    -5.48964900	    -0.09540100	    -0.23805100
 C	    -3.45249000	     2.15327800	    -0.78299900
 O	    -2.18685200	     2.53618600	    -0.17255600
 C	     0.39931800	     3.21475500	     0.11955800
 H	     3.49436700	     4.95835500	     1.99091800
 H	     3.88329700	     5.20247100	     0.25877200
 H	     3.05916700	     6.49016200	     1.18244100
 H	     3.71927100	     2.93854400	     0.83708000
 H	     3.20806700	     0.59718600	     0.39875200
 H	    -0.58056300	    -3.32757500	     0.19330200
 H	    -1.65425300	    -4.24883000	     2.22497900
 H	    -1.61654700	    -2.95528500	     4.34925000
 H	    -0.47582000	    -0.74839300	     4.43499300
 H	     0.60677400	     0.16970000	     2.40868600
 H	     2.59366500	    -1.25770400	    -2.60326600
 H	     4.85762200	    -2.24134900	    -2.84207500
 H	     6.01500000	    -3.19452400	    -0.85815100
 H	     4.90229700	    -3.15682500	     1.36382200
 H	     2.64901200	    -2.15956100	     1.60826700
 H	    -3.60929500	     0.43206500	    -2.11784300
 H	    -4.01601700	    -0.77109600	     2.00319000
 H	    -3.76284000	     0.94609300	     1.67256700
 H	    -2.43916500	    -0.21376600	     1.44022500
 H	    -2.58559300	    -1.97390800	    -0.43772800
 H	    -4.17813900	    -2.45561900	     0.16029500
 H	    -3.97049000	    -1.97625200	    -1.53614800
 H	    -6.02007500	    -0.81390200	     0.39740200
 H	    -5.79573800	     0.90839100	     0.07793400
 H	    -5.83047800	    -0.24521900	    -1.26997600
 H	    -4.23898500	     2.37583300	    -0.06433300
 H	    -3.58517200	     2.76687800	    -1.67864600
 H	    -0.37532100	     3.96763000	     0.04897900
 Co	    -0.66568100	    -0.82923600	    -2.28512800
 H	    -0.00020800	     0.00734600	    -3.57082400
 H	    -1.31997400	    -2.28038300	    -2.76089300

