67
CoH2L21.xyz
 C	    -2.70692000	     5.18679600	    -1.22924200
 C	    -2.93956900	     3.89733600	    -0.43490200
 C	    -2.21999700	     3.92392600	     0.91720400
 C	    -2.55900900	     2.66726500	    -1.28401600
 C	    -1.04438300	     2.55865800	    -1.63529500
 N	    -0.66831000	     1.24839400	    -1.05466300
 C	     0.51148600	     0.56235200	    -1.41819000
 C	     0.46083600	    -0.75311900	    -1.89757400
 C	     1.64290300	    -1.43303300	    -2.17131900
 C	     2.87256800	    -0.79440000	    -1.99384000
 C	     4.14252100	    -1.57079900	    -2.15952100
 F	     4.49000500	    -2.20750200	    -1.00735800
 F	     4.04035600	    -2.53040800	    -3.10681100
 F	     5.18978900	    -0.78498600	    -2.49313500
 C	     2.92122400	     0.53439300	    -1.56382900
 C	     1.74249800	     1.21441400	    -1.28244700
 C	    -1.77492100	     0.72014500	    -0.46184900
 C	    -1.85947700	    -0.55900100	     0.28716400
 N	    -3.00779700	    -1.16260900	     0.30732100
 C	    -2.87459400	    -2.37015300	     1.15478400
 C	    -3.53563300	    -3.60146000	     0.52243200
 C	    -3.31060300	    -4.83373600	     1.40723700
 C	    -5.03096800	    -3.36477000	     0.28821500
 C	    -1.34156800	    -2.51025500	     1.36700600
 N	    -0.84983300	    -1.17458700	     0.96285100
 C	     0.38095900	    -0.62097900	     1.36285300
 C	     0.44665100	     0.69711900	     1.83573900
 C	     1.68029000	     1.25905900	     2.14188000
 C	     2.84651500	     0.50185900	     2.00419600
 C	     4.17809000	     1.15461900	     2.20671000
 F	     4.59896600	     1.78888200	     1.07760200
 F	     4.14750000	     2.09482000	     3.17893100
 F	     5.14541200	     0.26932400	     2.53175400
 C	     2.77648800	    -0.82808400	     1.58179400
 C	     1.54565700	    -1.39272100	     1.26825900
 N	    -2.86194600	     1.42191000	    -0.55081800
 H	    -1.64135700	     5.34436800	    -1.43982000
 H	    -3.24100000	     5.16699500	    -2.18686400
 H	    -3.06118800	     6.05536600	    -0.66290300
 H	    -4.01633800	     3.80165000	    -0.24255600
 H	    -1.13164000	     4.00081500	     0.79949300
 H	    -2.43956800	     3.02348300	     1.50077100
 H	    -2.54653800	     4.79028000	     1.50327300
 H	    -3.16572500	     2.68071200	    -2.19533100
 H	    -0.85882000	     2.54414400	    -2.71157200
 H	    -0.44558200	     3.35504000	    -1.18589900
 H	    -0.49481600	    -1.23989600	    -2.05888700
 H	     1.60548000	    -2.45649300	    -2.52860000
 H	     3.87510200	     1.02601900	    -1.41299700
 H	     1.77411500	     2.23406600	    -0.91565900
 H	    -3.37717000	    -2.15587200	     2.10797500
 H	    -3.04667700	    -3.76850900	    -0.44831600
 H	    -3.76159400	    -4.68771900	     2.39722500
 H	    -3.77366200	    -5.71851000	     0.95635000
 H	    -2.24628300	    -5.05398000	     1.55126500
 H	    -5.20928900	    -2.50377000	    -0.36481500
 H	    -5.54821500	    -3.18060000	     1.23845000
 H	    -5.48955600	    -4.24452800	    -0.17818400
 H	    -0.90849200	    -3.27818400	     0.71462800
 H	    -1.06039600	    -2.71547700	     2.40062700
 H	    -0.46103400	     1.27635500	     1.96319300
 H	     1.73276500	     2.28415000	     2.49295200
 H	     3.68172100	    -1.41136600	     1.46160300
 H	     1.49114500	    -2.41226400	     0.90384600
 Co	    -4.58580000	     0.19621700	    -0.25635500
 H	    -5.60084800	     0.47653100	     1.04563900
 H	    -5.31724300	    -0.00620400	    -1.74567000

