30
CoH2L128.xyz
 C	    -2.85344600	     1.19472100	    -0.08173300
 C	    -2.78936400	    -0.35900200	     0.00517400
 O	    -1.33070000	    -0.60693400	     0.03884900
 C	    -0.74037400	     0.60641800	    -0.01444300
 C	     0.74037900	     0.60640900	     0.01425800
 N	     1.45985400	     1.65904200	     0.08333600
 C	     2.85342900	     1.19472800	     0.08138400
 C	     2.78942500	    -0.35897800	    -0.00519600
 C	     3.33807500	    -1.05154700	     1.23333900
 C	     3.37238000	    -0.91059800	    -1.29775300
 O	     1.33065400	    -0.60695000	    -0.03955900
 N	    -1.45984400	     1.65907600	    -0.08330300
 H	     3.35670900	     1.53563300	     0.99382400
 H	     3.38612500	     1.63221000	    -0.77122200
 H	     2.86004300	    -0.66042500	     2.13783200
 H	     3.16785000	    -2.13243800	     1.18626200
 H	     4.41686800	    -0.87463900	     1.31013800
 H	     3.19993900	    -1.98925700	    -1.37682500
 H	     4.45304700	    -0.73044300	    -1.32431200
 H	     2.92019400	    -0.41864500	    -2.16568000
 C	    -3.33875800	    -1.05197300	    -1.23282500
 H	    -3.16821900	    -2.13280900	    -1.18561600
 H	    -4.41764800	    -0.87534800	    -1.30884400
 H	    -2.86149000	    -0.66095400	    -2.13776500
 C	    -3.37169000	    -0.91015600	     1.29826500
 H	    -4.45230600	    -0.72979500	     1.32534400
 H	    -3.19935800	    -1.98881300	     1.37760900
 H	    -2.91894100	    -0.41798100	     2.16577600
 H	    -3.35635200	     1.53545300	    -0.99444300
 H	    -3.38650700	     1.63236200	     0.77054400

