73
CoH2L136.xyz
 C	     1.98427100	    -0.09983700	     0.74077300
 C	     1.98442200	     0.09882800	    -0.74077400
 C	     1.27587000	    -0.76893700	    -1.55953500
 C	     0.50262500	    -1.86855900	    -0.94852300
 N	    -0.54403500	    -1.72100100	    -0.22111100
 C	    -1.01710200	    -3.06799500	     0.19011700
 C	     0.10137600	    -3.99731300	    -0.35219800
 O	     0.93712600	    -3.12127800	    -1.16906700
 C	     1.25221800	    -0.60891900	    -2.96756400
 C	     1.90953200	     0.44778300	    -3.54759700
 C	     2.64206700	     1.36910800	    -2.75435300
 C	     2.70066000	     1.18714500	    -1.33248000
 C	     3.47184000	     2.10073500	    -0.56246300
 C	     4.12386200	     3.15457400	    -1.16289600
 C	     4.04618800	     3.34548000	    -2.56359600
 C	     3.32564500	     2.46733500	    -3.34069000
 C	     1.27602800	     0.76828200	     1.55943100
 C	     0.50336000	     1.86830300	     0.94840300
 N	    -0.54321100	     1.72138100	     0.22072100
 C	    -1.01561700	     3.06873300	    -0.19019700
 C	     0.10332900	     3.99734500	     0.35228700
 O	     0.93840100	     3.12078500	     1.16928000
 C	     1.25223000	     0.60836700	     2.96747100
 C	     1.90902000	    -0.44860700	     3.54761500
 C	     2.64115000	    -1.37033000	     2.75447100
 C	     2.69992800	    -1.18847100	     1.33259000
 C	     3.47074700	    -2.10247200	     0.56269900
 C	     4.12230600	    -3.15652200	     1.16325800
 C	     4.04442600	    -3.34732600	     2.56396400
 C	     3.32417600	    -2.46883800	     3.34093500
 H	    -1.05414000	    -3.09716800	     1.28112000
 H	    -0.26434000	    -4.80255100	    -0.98977000
 H	     0.73637100	    -4.40161800	     0.43896200
 H	     0.68673300	    -1.31072900	    -3.57223300
 H	     1.87638900	     0.59161900	    -4.62375100
 H	     3.54256000	     1.96167600	     0.50976800
 H	     4.70599200	     3.84356700	    -0.55780200
 H	     4.56350600	     4.18304700	    -3.02260800
 H	     3.26815100	     2.59892600	    -4.41788200
 H	    -1.05270800	     3.09814200	    -1.28118800
 H	     0.73870300	     4.40125000	    -0.43877700
 H	    -0.26198200	     4.80281300	     0.98979400
 H	     0.68708900	     1.31051000	     3.57207000
 H	     1.87577200	    -0.59232400	     4.62378100
 H	     3.54156200	    -1.96360200	    -0.50954900
 H	     4.70420900	    -3.84578800	     0.55825600
 H	     4.56134400	    -4.18509500	     3.02305800
 H	     3.26648000	    -2.60034900	     4.41812700
 Co	    -1.77984800	     0.00054100	    -0.00060700
 H	    -2.60402100	    -0.22721900	     1.45215800
 H	    -2.60176200	     0.22886000	    -1.45459300
 C	    -2.39554800	     3.35219600	     0.36356600
 C	    -2.61747000	     3.35484800	     1.74690600
 C	    -3.46404800	     3.60755600	    -0.49961700
 C	    -3.88828700	     3.61358600	     2.25712500
 H	    -1.79658500	     3.14537300	     2.42822600
 C	    -4.73880100	     3.86748800	     0.00899300
 H	    -3.29739700	     3.59571900	    -1.57336300
 C	    -4.95298900	     3.87078800	     1.38805800
 H	    -4.05018900	     3.60975200	     3.33145300
 H	    -5.56229900	     4.06233600	    -0.67238000
 H	    -5.94432400	     4.06973900	     1.78573100
 C	    -2.39719100	    -3.35096500	    -0.36347900
 C	    -2.61939200	    -3.35313400	    -1.74676300
 C	    -3.46555600	    -3.60648000	     0.49984500
 C	    -3.89036700	    -3.61150300	    -2.25680100
 H	    -1.79860800	    -3.14357800	    -2.42817800
 C	    -4.74044400	    -3.86606400	    -0.00857900
 H	    -3.29867900	    -3.59502200	     1.57356100
 C	    -4.95492100	    -3.86884900	    -1.38761000
 H	    -4.05248700	    -3.60727200	    -3.33109500
 H	    -5.56382800	    -4.06102700	     0.67289900
 H	    -5.94637300	    -4.06749100	    -1.78514600

