57
CoH2L60.xyz
 C	    -6.18673400	     0.78152200	    -0.50236600
 C	    -5.20305800	     0.50369300	    -1.64391500
 C	    -3.96131900	    -0.33947300	    -1.29233000
 C	    -4.29707600	    -1.78837700	    -0.92384300
 C	    -3.06747000	     0.35684300	    -0.24457800
 C	    -3.50477900	     0.25658400	     1.23739800
 O	    -2.41657000	    -0.46704100	     1.89199200
 C	    -1.46980100	    -0.68347900	     0.96411300
 C	    -0.26960300	    -1.40960800	     1.42387800
 C	    -0.44167200	    -2.34657800	     2.45185600
 C	     0.63639100	    -3.09540700	     2.91973600
 C	     1.90191800	    -2.89768700	     2.37169900
 C	     2.08874100	    -1.94797600	     1.36457500
 C	     1.01887100	    -1.19197000	     0.87604500
 P	     1.27137700	     0.06533600	    -0.44876900
 C	     3.04227300	    -0.05501100	    -0.87118000
 C	     4.03829000	     0.68346100	    -0.21697900
 C	     5.37391500	     0.54181900	    -0.59515300
 C	     5.72327000	    -0.33699100	    -1.62357200
 C	     4.73389300	    -1.07223100	    -2.28106100
 C	     3.39652200	    -0.92811500	    -1.91217300
 C	     1.06784500	     1.64178600	     0.45942900
 C	     1.32974900	     1.76159500	     1.83260900
 C	     1.13791400	     2.98353300	     2.47799000
 C	     0.68149800	     4.09185900	     1.75984100
 C	     0.41652700	     3.97759100	     0.39323900
 C	     0.60468100	     2.75652000	    -0.25565800
 N	    -1.72447000	    -0.26553200	    -0.22824900
 H	    -5.74038900	     1.40212700	     0.28391200
 H	    -6.54983200	    -0.14237400	    -0.03801700
 H	    -7.06147600	     1.32363600	    -0.88042100
 H	    -4.86232200	     1.46146300	    -2.05962900
 H	    -5.73513300	    -0.01095900	    -2.45452200
 H	    -3.34531600	    -0.37067900	    -2.20175900
 H	    -4.80825400	    -2.27817700	    -1.76025500
 H	    -4.95537300	    -1.86233800	    -0.05098100
 H	    -3.38775200	    -2.36181700	    -0.71106800
 H	    -2.94448000	     1.40366000	    -0.53934900
 H	    -4.41601100	    -0.31499800	     1.40587700
 H	    -3.58611700	     1.22905000	     1.72605200
 H	    -1.42994800	    -2.49369400	     2.87283300
 H	     0.48441900	    -3.82718800	     3.70706500
 H	     2.75032500	    -3.47384700	     2.72923000
 H	     3.08240800	    -1.79080700	     0.96063400
 H	     3.77230700	     1.36756900	     0.58248400
 H	     6.14164300	     1.11812700	    -0.08645400
 H	     6.76410400	    -0.44417100	    -1.91590900
 H	     5.00120600	    -1.75067500	    -3.08617200
 H	     2.62400400	    -1.49172800	    -2.42871900
 H	     1.67965400	     0.90253300	     2.39644400
 H	     1.34332800	     3.06918800	     3.54143900
 H	     0.52827300	     5.04092800	     2.26587200
 H	     0.05631600	     4.83588800	    -0.16681000
 H	     0.38339800	     2.66232000	    -1.31512300
 Co	    -0.55064900	    -0.40558700	    -1.96126200
 H	    -0.40564200	    -1.92600200	    -2.62567900
 H	    -0.92735400	     0.82539800	    -3.02114300

