57
CoH2L138.xyz
 C	     0.32416700	     2.44185400	    -0.22008100
 C	     1.46661600	     1.67959100	     0.38504000
 N	     1.56296500	     0.39788800	     0.41245500
 C	     2.79829200	     0.03284100	     1.14478500
 C	     3.66814500	    -0.91930300	     0.35482500
 C	     4.02044300	    -0.62998600	    -0.96996800
 C	     4.83570700	    -1.50223000	    -1.68943900
 C	     5.30949400	    -2.67384600	    -1.09134600
 C	     4.96065800	    -2.96844200	     0.22739000
 C	     4.14055900	    -2.09465100	     0.94530800
 C	     3.44839600	     1.41418900	     1.42030600
 O	     2.44975700	     2.37978100	     0.97018100
 C	    -0.98021600	     2.23408400	     0.64940500
 C	    -1.90655200	     1.27832100	    -0.05496000
 N	    -1.60182500	     0.07924600	    -0.40326200
 C	    -2.77740800	    -0.53525900	    -1.06954100
 C	    -3.19773500	    -1.80903000	    -0.36893500
 C	    -3.13703900	    -3.03389000	    -1.03846000
 C	    -3.50522600	    -4.21491400	    -0.38927000
 C	    -3.93607200	    -4.17732100	     0.93744200
 C	    -3.99693000	    -2.95478900	     1.61362200
 C	    -3.62861600	    -1.77831700	     0.96363800
 C	    -3.82581900	     0.60641700	    -1.03152600
 O	    -3.14444400	     1.70359000	    -0.35197100
 C	    -1.63032900	     3.57367900	     1.03475500
 C	    -1.83621800	     4.53827800	    -0.14388300
 C	    -0.59892100	     4.60662300	    -1.07698300
 C	     0.62943100	     3.92714500	    -0.46270000
 H	     0.15060000	     1.97955900	    -1.19752000
 H	     2.50368500	    -0.45142300	     2.07997700
 H	     3.64726700	     0.27488500	    -1.44256800
 H	     5.09830400	    -1.27089400	    -2.71807700
 H	     5.94348300	    -3.35416400	    -1.65321500
 H	     5.32052700	    -3.87952600	     0.69732700
 H	     3.86090800	    -2.32782600	     1.96951200
 H	     3.64216600	     1.60308300	     2.47670900
 H	     4.35691800	     1.58549500	     0.83855900
 H	    -0.69651200	     1.72205100	     1.57570800
 H	    -2.49610900	    -0.77366000	    -2.09820600
 H	    -2.79368000	    -3.06280100	    -2.06909500
 H	    -3.45181700	    -5.16149400	    -0.91980400
 H	    -4.22091800	    -5.09476500	     1.44499400
 H	    -4.32761200	    -2.92007100	     2.64800800
 H	    -3.66833600	    -0.83260000	     1.49882200
 H	    -4.71807400	     0.36161500	    -0.45313900
 H	    -4.11260000	     0.96105300	    -2.02283200
 H	    -0.97168800	     4.04011600	     1.77503900
 H	    -2.58067500	     3.38405700	     1.54319100
 H	    -2.71719400	     4.23348100	    -0.71609500
 H	    -2.05685700	     5.53052900	     0.26568300
 H	    -0.35943200	     5.64705400	    -1.32097700
 H	    -0.82316400	     4.10867500	    -2.02943100
 H	     0.91829800	     4.41876100	     0.47210800
 H	     1.48628500	     4.00669200	    -1.14024900
 Co	     0.16526100	    -1.07901200	    -0.16257100
 H	     0.46005600	    -1.71907500	    -1.69154300
 H	     0.10466100	    -2.12865200	     1.14995000

