32
CoH2L32.xyz
 C	    -4.78499000	    -0.99122800	     0.03631200
 C	    -4.64525900	     0.22742700	     0.70490700
 C	    -3.43561100	     0.91804700	     0.65676900
 C	    -2.34447100	     0.39279700	    -0.05528400
 C	    -1.06794000	     1.14129700	    -0.10301500
 C	    -1.07024800	     2.54846400	    -0.17623900
 C	     0.12816000	     3.24515700	    -0.20638300
 C	     1.32811900	     2.53335200	    -0.15764100
 C	     1.25610500	     1.14761000	    -0.09180700
 C	     2.46644800	     0.31591700	     0.00394900
 N	     2.42745500	    -0.96032200	     0.15744400
 C	     3.81194300	    -1.45439900	     0.20067000
 C	     4.65925000	    -0.16345100	     0.11338000
 O	     3.66491200	     0.90476200	    -0.06086600
 N	     0.09166300	     0.45828000	    -0.07540200
 C	    -2.49346600	    -0.83242300	    -0.72196100
 C	    -3.70621300	    -1.51787400	    -0.67706500
 H	    -5.72884700	    -1.52773100	     0.07273900
 H	    -5.47676600	     0.63883600	     1.26986600
 H	    -3.32967600	     1.85439700	     1.19647600
 H	    -2.01523600	     3.07576000	    -0.23034700
 H	     0.13403200	     4.32844400	    -0.27048700
 H	     2.28941000	     3.03230300	    -0.16788900
 H	     3.98321700	    -2.13139900	    -0.64121900
 H	     3.97976200	    -2.00689100	     1.12864900
 H	     5.21469600	     0.05814100	     1.02654200
 H	     5.32733000	    -0.12886700	    -0.74798700
 H	    -1.66190100	    -1.24452300	    -1.28488600
 H	    -3.80649400	    -2.46291500	    -1.20292100
 Co	     0.49431100	    -1.74870100	     0.08975100
 H	    -0.15296000	    -2.39123100	     1.47931700
 H	     0.33295200	    -2.66734500	    -1.29804800

