42
CoH2L157.xyz
 C	    -2.43838200	     0.66821300	    -0.44861400
 C	    -2.79732300	    -0.52033900	     0.31359700
 N	    -1.99985300	    -1.43326600	     0.73984400
 C	    -2.79679600	    -2.46922700	     1.40195300
 C	    -4.24497300	    -1.94038400	     1.32038400
 O	    -4.12546300	    -0.69605200	     0.57963200
 C	    -1.08446100	     1.11671900	    -0.55436700
 N	    -0.01473100	     0.42408100	    -0.02040800
 C	     1.01978000	     1.14485200	     0.52994900
 C	     2.39024400	     0.72284700	     0.47291300
 C	     2.80896000	    -0.45381100	    -0.27026600
 N	     2.06109600	    -1.41356800	    -0.70131900
 C	     2.90268500	    -2.37154600	    -1.42709100
 C	     4.33375200	    -1.87950700	    -1.14255000
 O	     4.13907000	    -0.56913900	    -0.54259600
 C	     3.39456200	     1.48066100	     1.11363500
 C	     3.10488000	     2.63932100	     1.81244500
 C	     1.76740500	     3.06580300	     1.87851900
 C	     0.76530700	     2.34510900	     1.25631200
 C	    -0.87072600	     2.30477500	    -1.30663100
 C	    -1.90612600	     3.00138900	    -1.90592800
 C	    -3.23033600	     2.55183700	    -1.78863600
 C	    -3.47638400	     1.39585300	    -1.06484600
 H	    -2.45234300	    -2.60976000	     2.43136300
 H	    -2.66366600	    -3.41917900	     0.87317500
 H	    -4.67961600	    -1.70874600	     2.29684300
 H	    -4.92229900	    -2.59778400	     0.76924500
 H	     2.64892700	    -2.34776300	    -2.49307600
 H	     2.72319100	    -3.38497200	    -1.05805200
 H	     4.86462800	    -2.50518500	    -0.41822900
 H	     4.94851200	    -1.75132500	    -2.03536500
 H	     4.41854600	     1.12973600	     1.04733600
 H	     3.89392500	     3.19968100	     2.30468000
 H	     1.50895100	     3.96240600	     2.43737400
 H	    -0.26381200	     2.67859200	     1.33791400
 H	     0.15003500	     2.65413400	    -1.42349000
 H	    -1.68265600	     3.89560000	    -2.48327500
 H	    -4.04624200	     3.09131600	    -2.26019600
 H	    -4.49094200	     1.02746000	    -0.96047000
 Co	     0.07299400	    -1.69702300	    -0.06410100
 H	    -0.62795300	    -2.45272200	    -1.48555700
 H	     0.41512900	    -2.77643900	     1.28271100

