55
CoH2L40.xyz
 C	    -6.18441300	    -1.67383400	    -0.16228400
 C	    -5.58284300	    -1.08358900	    -1.27820700
 C	    -4.24197600	    -0.70576000	    -1.23175800
 C	    -3.49000200	    -0.91568000	    -0.06532100
 P	    -1.72963800	    -0.44637700	     0.07154600
 C	    -0.92566900	    -1.15587600	    -1.44724700
 C	     0.51953400	    -0.64957000	    -1.61088200
 P	     1.46114800	    -0.57648500	     0.01429300
 C	     1.99733200	     1.16306300	     0.19586900
 C	     2.15025900	     1.66055900	     1.49918300
 C	     2.53503100	     2.98496000	     1.70876900
 C	     2.76127500	     3.82762300	     0.61885000
 C	     2.61622300	     3.33821600	    -0.68156200
 C	     2.24310700	     2.01103300	    -0.89388300
 C	     2.99163200	    -1.52493500	    -0.31343300
 C	     2.87235500	    -2.91071900	    -0.51266900
 C	     4.00607300	    -3.68721600	    -0.74666000
 C	     5.27098900	    -3.09242700	    -0.76875500
 C	     5.39563600	    -1.71827900	    -0.55811200
 C	     4.26193700	    -0.93449100	    -0.33196700
 C	    -1.61354500	     1.36077800	    -0.21280300
 C	    -1.78691000	     1.94450600	    -1.47784800
 C	    -1.57954900	     3.31170000	    -1.65523000
 C	    -1.19633000	     4.10946200	    -0.57283600
 C	    -1.02900500	     3.53872200	     0.68929200
 C	    -1.23555400	     2.16990200	     0.86831500
 C	    -4.09873500	    -1.50928600	     1.04971000
 C	    -5.44239800	    -1.88664200	     1.00044700
 H	    -7.22958800	    -1.96774200	    -0.20186500
 H	    -6.15918300	    -0.91838600	    -2.18431400
 H	    -3.78326900	    -0.24700000	    -2.10226000
 H	    -0.94019200	    -2.24228900	    -1.30573900
 H	    -1.50301500	    -0.93428700	    -2.35101700
 H	     1.06716500	    -1.30008200	    -2.29877200
 H	     0.50960500	     0.35312500	    -2.04277200
 H	     1.94778000	     1.01335700	     2.34750800
 H	     2.64483700	     3.36021900	     2.72231200
 H	     3.04825800	     4.86289000	     0.78077000
 H	     2.79536400	     3.98946100	    -1.53246100
 H	     2.14693900	     1.64322800	    -1.91050700
 H	     1.89302600	    -3.38119300	    -0.47722600
 H	     3.90294600	    -4.75747300	    -0.90261500
 H	     6.15481400	    -3.69924900	    -0.94441800
 H	     6.37665700	    -1.25132700	    -0.57108200
 H	     4.36871000	     0.13332400	    -0.17163300
 H	    -2.06862200	     1.33308600	    -2.32963900
 H	    -1.70860500	     3.75394800	    -2.63927400
 H	    -1.02248700	     5.17216700	    -0.71686800
 H	    -0.72121900	     4.15193000	     1.53084300
 H	    -1.07832200	     1.71999700	     1.84434100
 H	    -3.51812600	    -1.67710300	     1.95284100
 H	    -5.90630400	    -2.34656500	     1.86834800
 Co	    -0.15552700	    -1.32102200	     1.73078600
 H	    -0.23345200	    -2.98421200	     1.74114800
 H	    -0.04386000	    -0.60262600	     3.22165800

