120
CoH2L101.xyz
 C	    -0.20310300	     1.37614600	     1.47339800
 C	     0.00218300	     0.13725600	     2.31684800
 C	     1.28386800	     0.33631100	     3.20206300
 C	     2.54231900	     0.43341600	     2.37428200
 C	     2.92492100	     1.64004300	     1.77172000
 C	     4.02970500	     1.69805900	     0.92728600
 C	     4.80887300	     0.56006400	     0.65516700
 C	     5.99315600	     0.65667200	    -0.30344300
 C	     6.81100000	    -0.65284400	    -0.37139700
 C	     7.98265100	    -0.52253400	    -1.36107000
 C	     7.43195700	    -0.21379300	    -2.76497100
 C	     6.63853200	     1.10416100	    -2.72418100
 C	     7.56596800	     2.24614600	    -2.26856900
 C	     8.12271300	     1.93277200	    -0.86706800
 C	     8.91573000	     0.61537200	    -0.91281700
 C	     6.95558600	     1.79545600	     0.12748700
 C	     5.46976300	     0.96880100	    -1.73216300
 C	     4.42976300	    -0.63743800	     1.27426600
 C	     3.31789100	    -0.69968300	     2.11565400
 C	    -1.25707100	    -0.02942700	     3.24359300
 C	    -2.51384000	    -0.27602300	     2.44680100
 C	    -2.93072900	    -1.57237900	     2.13121200
 C	    -4.01951800	    -1.79222100	     1.28402200
 C	    -4.72721800	    -0.72534300	     0.71518300
 C	    -5.88035900	    -0.91887600	    -0.26534800
 C	    -6.22531500	    -2.40567700	    -0.50447400
 C	    -7.37980900	    -2.54668500	    -1.51401800
 C	    -8.63000800	    -1.83117600	    -0.97256900
 C	    -8.31050000	    -0.34183600	    -0.75500500
 C	    -7.89190900	     0.29536100	    -2.09339900
 C	    -6.64720200	    -0.42641100	    -2.64203400
 C	    -6.96896300	    -1.91555700	    -2.85667700
 C	    -5.49485200	    -0.29175800	    -1.63252700
 C	    -7.15808800	    -0.20823000	     0.25653100
 C	    -4.31935900	     0.57419100	     1.06081300
 C	    -3.24154000	     0.79407400	     1.91071100
 C	     0.18372900	    -1.13554900	     1.52125600
 N	     0.25158600	    -1.31349400	     0.25386500
 C	     0.50168300	    -2.75018200	     0.00778700
 C	     1.93212700	    -3.03115100	    -0.39547100
 C	     2.60966200	    -2.57411700	    -1.52406600
 C	     3.93899200	    -2.96095000	    -1.71009100
 C	     4.57457600	    -3.78849800	    -0.77583400
 C	     3.89332800	    -4.23343700	     0.36065400
 C	     2.56517100	    -3.84908600	     0.54641100
 C	     1.62976400	    -4.23001200	     1.67236900
 C	     0.36515700	    -3.39935800	     1.41132600
 O	     0.30317400	    -2.23285200	     2.29634700
 N	    -0.35487600	     1.49725900	     0.20693300
 C	    -0.57609200	     2.92894300	    -0.10015200
 C	    -0.42678800	     3.63255700	     1.27809500
 C	    -1.73023800	     4.39839200	     1.56334900
 C	    -2.65200800	     4.00969000	     0.42824500
 C	    -1.99830300	     3.21780700	    -0.52171400
 C	    -2.65426100	     2.78001100	    -1.67023700
 C	    -3.98954000	     3.14464600	    -1.86007800
 C	    -4.65357500	     3.92592600	    -0.90628200
 C	    -3.98893200	     4.36354400	     0.24353500
 O	    -0.25610700	     2.51018200	     2.20233900
 H	     1.33864200	    -0.51322700	     3.88689100
 H	     1.13016200	     1.23794900	     3.79957900
 H	     2.35585300	     2.54447600	     1.96799300
 H	     4.28479700	     2.64939400	     0.47031300
 H	     7.19333400	    -0.90356500	     0.62736900
 H	     6.16337600	    -1.47754300	    -0.68660000
 H	     8.53761400	    -1.46946500	    -1.38247600
 H	     6.78253300	    -1.03290900	    -3.10285300
 H	     8.25758100	    -0.13629200	    -3.48545800
 H	     6.23922100	     1.32750400	    -3.72179600
 H	     8.39218300	     2.36816800	    -2.98213500
 H	     7.01172300	     3.19448900	    -2.24940400
 H	     8.77895500	     2.74952400	    -0.53944100
 H	     9.76182700	     0.70673400	    -1.60747400
 H	     9.33245600	     0.39231800	     0.07894800
 H	     7.33804900	     1.58357700	     1.13516100
 H	     6.41355600	     2.74644000	     0.18421800
 H	     4.88413300	     1.89620400	    -1.71580200
 H	     4.78907000	     0.16761800	    -2.04688400
 H	     4.99042300	    -1.54663500	     1.09881000
 H	     3.04842800	    -1.64857100	     2.56996700
 H	    -1.05256500	    -0.85994300	     3.92300500
 H	    -1.34066400	     0.88113000	     3.84277000
 H	    -2.39761300	    -2.42348500	     2.54654800
 H	    -4.30310800	    -2.81504200	     1.06369900
 H	    -5.34250600	    -2.93451600	    -0.88568600
 H	    -6.50490200	    -2.88205900	     0.44487100
 H	    -7.59802700	    -3.61262700	    -1.65871600
 H	    -9.46287900	    -1.94010200	    -1.68053500
 H	    -8.94683600	    -2.28991800	    -0.02587200
 H	    -9.19614900	     0.17370300	    -0.36121700
 H	    -7.67288100	     1.36244000	    -1.94862500
 H	    -8.71690600	     0.22884300	    -2.81574900
 H	    -6.34522600	     0.02897800	    -3.59417500
 H	    -7.78036400	    -2.02738000	    -3.58886100
 H	    -6.09019700	    -2.43400500	    -3.26311300
 H	    -5.24396000	     0.76460800	    -1.49407600
 H	    -4.58999500	    -0.78305900	    -2.01245200
 H	    -6.94821600	     0.85311200	     0.43473300
 H	    -7.44711000	    -0.64515400	     1.22206100
 H	    -4.83593400	     1.43425000	     0.64832100
 H	    -2.95587800	     1.81313300	     2.15027700
 H	    -0.22785500	    -3.11215300	    -0.72036200
 H	     2.11593300	    -1.92092900	    -2.23758500
 H	     4.48273500	    -2.61722500	    -2.58517900
 H	     5.60820800	    -4.08376400	    -0.93395500
 H	     4.39151700	    -4.87168100	     1.08595500
 H	     1.38589700	    -5.29887300	     1.64421000
 H	     2.03940900	    -4.02198500	     2.66657500
 H	    -0.56220000	    -3.95118700	     1.56660000
 H	     0.16341800	     3.24030300	    -0.84150900
 H	     0.46759500	     4.24754700	     1.37527200
 H	    -2.12678500	     4.13750600	     2.55072800
 H	    -1.54044000	     5.47815400	     1.57091600
 H	    -2.14115000	     2.15663200	    -2.39634100
 H	    -4.51642400	     2.81532600	    -2.75075200
 H	    -5.69411600	     4.19733900	    -1.06287900
 H	    -4.50629100	     4.97466700	     0.97863800
 Co	    -0.23286200	     0.02977800	    -1.25472600
 H	     0.92731000	     0.53968700	    -2.36102100
 H	    -1.59489800	    -0.58098700	    -2.01937700

