59
CoH2L95.xyz
 C	    -1.15378800	     0.71783500	    -0.58818700
 C	     0.02608900	     1.44040300	     0.02151000
 C	    -0.51714900	     2.51648100	     1.03256200
 C	    -0.70077400	     3.88985700	     0.38157900
 C	     0.63593700	     4.46775500	    -0.12542400
 C	     1.58380400	     3.37385500	    -0.67078800
 C	     0.81584300	     2.14206600	    -1.15326900
 C	     1.00914000	     0.51506100	     0.70787200
 N	     1.19609400	    -0.74275300	     0.52047000
 C	     2.42414500	    -1.13671200	     1.24707400
 C	     3.59346800	    -1.30289800	     0.30142800
 C	     3.72213100	    -2.21337900	    -0.74609100
 C	     4.87237300	    -2.16572900	    -1.53792000
 C	     5.87236700	    -1.22035600	    -1.27890900
 C	     5.73917600	    -0.31259100	    -0.22427900
 C	     4.59105900	    -0.35822900	     0.56649500
 C	     4.24267700	     0.49289800	     1.76695400
 C	     2.78546800	     0.12299400	     2.07875800
 O	     1.86853000	     1.13102500	     1.54013200
 N	    -1.38829900	    -0.54083900	    -0.69225600
 C	    -2.72794100	    -0.70662500	    -1.30221800
 C	    -3.12300400	     0.73293000	    -1.72995900
 C	    -4.49893300	     1.04504600	    -1.12496300
 C	    -4.74004800	    -0.08494700	    -0.14954000
 C	    -3.77175200	    -1.08739500	    -0.27487500
 C	    -3.82200200	    -2.23944000	     0.50840500
 C	    -4.86056600	    -2.37706000	     1.43286700
 C	    -5.82988500	    -1.37528700	     1.56461800
 C	    -5.77693800	    -0.22456500	     0.77302300
 O	    -2.08344900	     1.54735800	    -1.09811800
 H	     0.19636700	     2.60399800	     1.85416400
 H	    -1.45659500	     2.15751900	     1.46449900
 H	    -1.15026100	     4.57106200	     1.11310800
 H	    -1.41335200	     3.80566500	    -0.44365800
 H	     1.13975300	     5.00368400	     0.68788700
 H	     0.42869300	     5.20891100	    -0.90630500
 H	     2.18024700	     3.76461300	    -1.50255800
 H	     2.29388800	     3.06908000	     0.10352000
 H	     0.08794400	     2.43746000	    -1.91453200
 H	     1.48424400	     1.40753200	    -1.61395800
 H	     2.21703800	    -2.02670700	     1.84530500
 H	     2.93682000	    -2.93578700	    -0.95005300
 H	     4.98941500	    -2.86441900	    -2.36152300
 H	     6.76092900	    -1.19205800	    -1.90377400
 H	     6.51872700	     0.41864600	    -0.02644900
 H	     4.34856000	     1.56793500	     1.58789100
 H	     4.87875600	     0.24629200	     2.62587200
 H	     2.56817600	     0.04727800	     3.14439200
 H	    -2.65517900	    -1.41520100	    -2.13047600
 H	    -3.05860500	     0.92566200	    -2.80121800
 H	    -4.50671000	     2.03502400	    -0.65678900
 H	    -5.25957300	     1.05697900	    -1.91508900
 H	    -3.05995400	    -3.00713600	     0.41108100
 H	    -4.91396500	    -3.26616800	     2.05487100
 H	    -6.63149000	    -1.49381500	     2.28864900
 H	    -6.53295300	     0.54953200	     0.87713400
 Co	    -0.05748800	    -2.11135500	    -0.40493900
 H	     0.29988900	    -2.73323400	    -1.92321500
 H	    -0.41921800	    -3.28947000	     0.73063100

