62
CoH2L99.xyz
 C	    -1.23851700	     0.74043300	    -0.43243600
 C	     0.03812600	     1.34152200	     0.13177900
 C	    -0.32360500	     2.44390800	     1.17540600
 C	     0.68815000	     3.58648600	     1.36798200
 C	     0.52828100	     4.73330200	     0.35824300
 C	     1.01806400	     4.43485100	    -1.06233600
 C	     0.41074400	     3.19092000	    -1.72414100
 C	     0.87560800	     1.86863800	    -1.09547100
 C	     0.93191400	     0.29361400	     0.76879000
 N	     1.10079800	    -0.92826800	     0.40988100
 C	     2.24285100	    -1.47828800	     1.17270100
 C	     3.47651700	    -1.59659100	     0.30658500
 C	     3.65353300	    -2.39892200	    -0.81942700
 C	     4.86367900	    -2.32180500	    -1.51342900
 C	     5.87454700	    -1.45500600	    -1.08002800
 C	     5.69190800	    -0.65578700	     0.05214800
 C	     4.48333900	    -0.72997800	     0.74493300
 C	     4.07283500	     0.01126200	     1.99786900
 C	     2.59100900	    -0.35113200	     2.18459800
 O	     1.72795600	     0.75052600	     1.74977900
 N	    -1.46133300	    -0.47635900	    -0.78090800
 C	    -2.84751700	    -0.55880900	    -1.29262000
 C	    -3.29348500	     0.92427100	    -1.39463800
 C	    -4.62971300	     1.06782800	    -0.65491500
 C	    -4.77082100	    -0.23100700	     0.10664800
 C	    -3.79584000	    -1.15913200	    -0.27638900
 C	    -3.75955800	    -2.43651000	     0.28058700
 C	    -4.71728300	    -2.77761900	     1.23919800
 C	    -5.69319300	    -1.85176900	     1.62758300
 C	    -5.72684200	    -0.57364500	     1.06276900
 O	    -2.22506600	     1.62364200	    -0.67327400
 H	    -1.27599300	     2.88711100	     0.88112300
 H	    -0.50378200	     1.94050800	     2.13050400
 H	     0.52161000	     3.99239700	     2.37348300
 H	     1.71608800	     3.20967700	     1.36068000
 H	    -0.53245600	     5.02172100	     0.32389200
 H	     1.07280000	     5.61074900	     0.73182300
 H	     0.80992900	     5.30848600	    -1.69411900
 H	     2.11146900	     4.31771000	    -1.04876600
 H	     0.72123500	     3.17498700	    -2.77603500
 H	    -0.68339400	     3.25371700	    -1.72846800
 H	     0.87769000	     1.06731600	    -1.84150100
 H	     1.91325300	     1.97905400	    -0.76071900
 H	     1.94476800	    -2.42126200	     1.63618000
 H	     2.86102800	    -3.06147700	    -1.15613400
 H	     5.01995500	    -2.93597600	    -2.39573700
 H	     6.81052500	    -1.40295900	    -1.62956600
 H	     6.48064100	     0.01393800	     0.38518400
 H	     4.20397300	     1.09609800	     1.92336600
 H	     4.65272300	    -0.32297700	     2.86663000
 H	     2.31807300	    -0.56461400	     3.21801400
 H	    -2.84385100	    -1.08912400	    -2.24780900
 H	    -3.30043600	     1.33315300	    -2.40539500
 H	    -5.44287300	     1.19350200	    -1.38027700
 H	    -4.63278900	     1.95465600	    -0.01252300
 H	    -2.99199500	    -3.14569800	    -0.01509500
 H	    -4.70279700	    -3.76738100	     1.68693300
 H	    -6.43130000	    -2.12910000	     2.37527700
 H	    -6.48662100	     0.14186200	     1.36656000
 Co	    -0.05937400	    -2.02021100	    -0.91965900
 H	     0.43099800	    -2.13075200	    -2.52409800
 H	    -0.40313800	    -3.50677000	    -0.21940600

