40
CoH2L120.xyz
 C	    -3.32029700	     2.60845700	     0.57930700
 C	    -2.97400600	     1.16931500	     0.33740700
 N	    -1.72762200	     0.90873900	    -0.08707200
 C	    -1.37554000	    -0.38063400	    -0.31219700
 C	     0.01269600	    -0.54265900	    -0.77102300
 N	     0.80189100	     0.46197700	    -0.92998700
 C	     2.11994900	    -0.06881400	    -1.32386100
 C	     3.11535200	    -0.01422300	    -0.18607600
 C	     3.60597600	     1.11725300	     0.46314600
 C	     4.49794900	     0.94656100	     1.52468300
 C	     4.88756400	    -0.33830100	     1.92251500
 C	     4.39175400	    -1.46873500	     1.26699100
 C	     3.49924500	    -1.30013400	     0.20823400
 C	     2.85846300	    -2.36436100	    -0.65480100
 C	     1.85986000	    -1.59398500	    -1.53093400
 O	     0.48233900	    -1.76527400	    -1.03579400
 C	    -2.22735200	    -1.45163200	    -0.13317100
 C	    -3.53559400	    -1.18308400	     0.31188300
 O	    -4.33534900	    -2.24672400	     0.47473800
 C	    -5.67798500	    -2.02703900	     0.92865600
 C	    -3.90469400	     0.14533300	     0.54818100
 H	    -3.14698200	     3.19692500	    -0.32890400
 H	    -2.67567600	     3.02461400	     1.36225500
 H	    -4.36394300	     2.72207400	     0.88269200
 H	     2.46475600	     0.44684800	    -2.22366200
 H	     3.29197500	     2.11099500	     0.15651400
 H	     4.88925800	     1.81564400	     2.04579400
 H	     5.58122900	    -0.45784200	     2.75029500
 H	     4.69686700	    -2.46397600	     1.57989600
 H	     2.35306500	    -3.14528400	    -0.07687400
 H	     3.60101700	    -2.86422900	    -1.28835800
 H	     1.84832200	    -1.91594100	    -2.57196900
 H	    -1.90881800	    -2.46882700	    -0.32516500
 H	    -5.68354100	    -1.55926800	     1.91900700
 H	    -6.13225900	    -3.01663700	     0.98653900
 H	    -6.23429500	    -1.40642300	     0.21803300
 H	    -4.89734300	     0.40469400	     0.89183600
 Co	    -0.12638800	     2.30281200	    -0.46454800
 H	    -0.36748500	     3.28202700	    -1.80143500
 H	     0.40049600	     3.09975000	     0.90051100

