54
CoH2L110.xyz
 C	     0.89698900	    -0.35967500	     0.90028500
 C	     0.00015900	    -1.10947900	     0.00153500
 C	    -0.53767100	    -2.46318500	     0.51126300
 C	     0.53760100	    -2.46476800	    -0.50434400
 C	    -0.89655100	    -0.36203100	    -0.89929800
 N	    -1.09776600	     0.90875900	    -0.94706500
 C	    -2.25507200	     1.14550700	    -1.83786500
 C	    -3.49989400	     1.50406100	    -0.98896300
 C	    -3.85646000	     0.42721200	     0.00830400
 C	    -3.20852000	     0.36873500	     1.25195700
 C	    -3.45766600	    -0.67943600	     2.13887400
 C	    -4.36541600	    -1.68639600	     1.79969300
 C	    -5.03249900	    -1.62796900	     0.57416600
 C	    -4.78011900	    -0.57770900	    -0.31097700
 C	    -2.36574300	    -0.19009600	    -2.58947100
 O	    -1.62581800	    -1.11899200	    -1.73970600
 N	     1.09812800	     0.91125600	     0.94483200
 C	     2.25564300	     1.15028100	     1.83476900
 C	     3.50019200	     1.50671500	     0.98459000
 C	     3.85655600	     0.42734600	    -0.01001300
 C	     3.20800400	     0.36548100	    -1.25318500
 C	     3.45697300	    -0.68492200	    -2.13750100
 C	     4.36515000	    -1.69076500	    -1.79615900
 C	     5.03281300	    -1.62900800	    -0.57111000
 C	     4.78060700	    -0.57652800	     0.31144000
 C	     2.36653800	    -0.18342600	     2.58969000
 O	     1.62649600	    -1.11447800	     1.74242100
 H	    -0.28729700	    -2.69907500	     1.53921900
 H	    -1.55098700	    -2.69957300	     0.20753300
 H	     0.28715500	    -2.70348800	    -1.53162800
 H	     1.55087400	    -2.70056700	    -0.20000600
 H	    -2.03191300	     1.97258700	    -2.51463200
 H	    -4.33097700	     1.68037200	    -1.68163700
 H	    -3.28824200	     2.44728800	    -0.47516100
 H	    -2.50443800	     1.15110200	     1.52032800
 H	    -2.94411500	    -0.70777200	     3.09635500
 H	    -4.55957700	    -2.50329900	     2.48942100
 H	    -5.75173200	    -2.39770800	     0.30721800
 H	    -5.30889300	    -0.53596100	    -1.26017600
 H	    -1.86994900	    -0.17105800	    -3.56375700
 H	    -3.38024800	    -0.57379200	    -2.69112600
 H	     2.03264700	     1.97906400	     2.50949800
 H	     4.33148100	     1.68492900	     1.67652200
 H	     3.28825600	     2.44855900	     0.46837000
 H	     2.50354400	     1.14694900	    -1.52319900
 H	     2.94295100	    -0.71587700	    -3.09464900
 H	     4.55919300	    -2.50938300	    -2.48388300
 H	     5.75234000	    -2.39789600	    -0.30250400
 H	     5.30976500	    -0.53220200	     1.26031200
 H	     1.87099600	    -0.16199800	     3.56405600
 H	     3.38110100	    -0.56677300	     2.69202800
 Co	    -0.00065400	     2.40317100	    -0.00206400
 H	     0.82936300	     3.32378500	    -1.13536700
 H	    -0.83128400	     3.32415500	     1.13041500

