97
CoH2L108.xyz
 C	    -1.21478700	    -0.30099100	     0.39097800
 C	    -0.00035500	    -0.86339100	     1.11070200
 C	    -0.14329600	    -2.42710400	     1.12118800
 C	    -1.33568900	    -2.90717200	     1.96175400
 C	    -1.44947800	    -2.17842100	     3.32516300
 C	    -0.17947000	    -1.38525900	     3.64461000
 C	     0.09918500	    -0.31457200	     2.58094500
 C	     1.27241700	    -0.56579800	     0.34604500
 N	     1.42246200	    -0.40259200	    -0.91789400
 C	     2.83258200	    -0.06819400	    -1.17029600
 C	     3.00706600	     1.41764400	    -1.41517400
 C	     2.12553800	     2.36515900	    -0.88336300
 C	     2.37011300	     3.72911700	    -1.05105500
 C	     3.49729400	     4.15998200	    -1.75211700
 C	     4.37446900	     3.21827100	    -2.29612600
 C	     4.12670300	     1.85622000	    -2.13140000
 C	     3.52994800	    -0.60502600	     0.13826500
 C	     3.92506400	    -2.07662000	     0.04218000
 C	     4.44522200	    -2.63480100	    -1.13027600
 C	     4.83431100	    -3.97645600	    -1.16456700
 C	     4.70812900	    -4.77512000	    -0.02855500
 C	     4.20051700	    -4.22097900	     1.14908900
 C	     3.81894100	    -2.88096600	     1.18581700
 C	     4.64502600	     0.27331000	     0.67020000
 C	     4.35574300	     1.37981200	     1.47816900
 C	     5.37358800	     2.24125000	     1.88509800
 C	     6.69199100	     2.01161200	     1.48626900
 C	     6.98573700	     0.90764400	     0.68494100
 C	     5.96915400	     0.04006400	     0.28307300
 O	     2.39817300	    -0.53745400	     1.08300200
 N	    -1.41167200	    -0.23667600	    -0.87859500
 C	    -2.78215700	     0.24580700	    -1.11499400
 C	    -3.69456400	    -0.86607800	    -1.59010100
 C	    -4.85719700	    -0.53122400	    -2.29498800
 C	    -5.76177800	    -1.51946700	    -2.67929400
 C	    -5.50539600	    -2.85951800	    -2.37655700
 C	    -4.33668500	    -3.20190700	    -1.69549900
 C	    -3.43606600	    -2.20955400	    -1.30311900
 C	    -3.15066900	     0.87590800	     0.27933800
 C	    -4.56739600	     0.60088800	     0.71904300
 C	    -5.59169700	     1.46657000	     0.31757600
 C	    -6.92209300	     1.16812800	     0.61024000
 C	    -7.24175500	     0.00348800	     1.31124100
 C	    -6.22216800	    -0.85854200	     1.71866600
 C	    -4.89114900	    -0.56409000	     1.42180400
 C	    -2.71249900	     2.33059800	     0.42636400
 C	    -1.84377100	     2.95053000	    -0.48181100
 C	    -1.38038600	     4.24776500	    -0.24610500
 C	    -1.76833900	     4.93755100	     0.90206500
 C	    -2.62401900	     4.32179700	     1.81945000
 C	    -3.08905500	     3.02975500	     1.58363900
 O	    -2.22034400	     0.12698300	     1.16724800
 H	     0.79115900	    -2.82855600	     1.52458100
 H	    -0.22503300	    -2.78069900	     0.08909200
 H	    -2.26278300	    -2.78221900	     1.39260400
 H	    -1.21119300	    -3.98527300	     2.11216200
 H	    -2.29663700	    -1.48345100	     3.30426600
 H	    -1.65465700	    -2.90016400	     4.12328500
 H	    -0.27323900	    -0.89038400	     4.61808000
 H	     0.67693500	    -2.06730400	     3.72282800
 H	     1.09180100	     0.10562000	     2.74150700
 H	    -0.61394100	     0.50300500	     2.69580900
 H	     3.18260200	    -0.61746500	    -2.04176900
 H	     1.23998500	     2.04679300	    -0.34378800
 H	     1.67685400	     4.45166600	    -0.62995800
 H	     3.68887600	     5.22175900	    -1.88006900
 H	     5.25054100	     3.54386500	    -2.85003300
 H	     4.81460800	     1.12577800	    -2.54870800
 H	     4.56320200	    -2.03496700	    -2.02631000
 H	     5.23239100	    -4.39310000	    -2.08526800
 H	     5.00529900	    -5.81949100	    -0.05850700
 H	     4.10458800	    -4.83098600	     2.04295400
 H	     3.43356900	    -2.45494900	     2.10549100
 H	     3.33405800	     1.57184100	     1.78276700
 H	     5.13321000	     3.09539100	     2.51199900
 H	     7.48376400	     2.68579200	     1.80054800
 H	     8.00840100	     0.71523400	     0.37290200
 H	     6.21129300	    -0.81747500	    -0.33526200
 H	    -2.77006100	     1.02440900	    -1.87675100
 H	    -5.05824200	     0.50980800	    -2.53165800
 H	    -6.66337100	    -1.24452800	    -3.21958400
 H	    -6.20798500	    -3.63118700	    -2.67863300
 H	    -4.12115900	    -4.24230600	    -1.46828300
 H	    -2.52478600	    -2.48506200	    -0.78588500
 H	    -5.34861700	     2.37145200	    -0.23049500
 H	    -7.70770000	     1.84630100	     0.28936300
 H	    -8.27798400	    -0.22940800	     1.53956900
 H	    -6.46070900	    -1.76606100	     2.26620500
 H	    -4.10451100	    -1.24234800	     1.73107600
 H	    -1.50902500	     2.44188700	    -1.37834800
 H	    -0.71512200	     4.71186700	    -0.96809500
 H	    -1.40836100	     5.94663200	     1.08205700
 H	    -2.93069200	     4.84764400	     2.71924400
 H	    -3.74988400	     2.55726300	     2.30322300
 Co	    -0.04236800	    -0.61065500	    -2.39001200
 H	    -0.01116400	    -2.13703400	    -3.07096300
 H	    -0.09145100	     0.66103400	    -3.49057400

