53
CoH2L15.xyz
 C	    -5.97370400	    -1.80364000	     0.41053800
 C	    -4.52790000	    -2.27611000	     0.60739100
 C	    -3.53976000	    -1.41023300	    -0.18421300
 C	    -3.67756300	     0.07735900	     0.17689300
 C	    -2.70697800	     0.94653600	    -0.63081700
 C	    -2.72276700	     2.45008300	    -0.24510500
 O	    -1.30450600	     2.80001600	    -0.05382900
 C	    -0.65177400	     1.64263500	    -0.11955500
 C	     0.80087800	     1.57792100	     0.12241800
 N	     1.41457300	     0.45898300	    -0.00775300
 C	     2.82677600	     0.68456900	     0.36866500
 C	     3.80870000	     0.12275800	    -0.67165500
 C	     5.26840100	     0.43403200	    -0.27780400
 C	     5.74838000	    -0.39011400	     0.92630100
 C	     5.56240200	    -1.89401000	     0.68332000
 C	     4.11060600	    -2.22597400	     0.31293800
 C	     3.63495200	    -1.39334900	    -0.88577900
 C	     2.89171100	     2.22544300	     0.52516000
 O	     1.48322500	     2.65887100	     0.49326000
 N	    -1.29465200	     0.56968200	    -0.40485500
 C	    -5.12865800	     0.54534400	    -0.03604000
 C	    -6.12010600	    -0.31687500	     0.75654400
 H	    -6.65852400	    -2.40469000	     1.02213900
 H	    -6.26479700	    -1.96016000	    -0.63850800
 H	    -4.42424400	    -3.32610100	     0.30725600
 H	    -4.27250000	    -2.22682500	     1.67595600
 H	    -2.51387900	    -1.75026300	    -0.00127000
 H	    -3.72940100	    -1.53067000	    -1.26123600
 H	    -3.42233600	     0.20499100	     1.24019600
 H	    -2.91550700	     0.81224300	    -1.69921100
 H	    -3.11823700	     3.10870500	    -1.01756400
 H	    -3.22370300	     2.64273200	     0.70688900
 H	     2.97810100	     0.19337900	     1.33463600
 H	     3.58339000	     0.63749500	    -1.61574400
 H	     5.90433000	     0.20136600	    -1.14242700
 H	     5.39774000	     1.50637700	    -0.08098700
 H	     6.80328900	    -0.16431700	     1.12645900
 H	     5.19293500	    -0.09591000	     1.82798500
 H	     5.87059700	    -2.46276400	     1.56974300
 H	     6.22248600	    -2.20675900	    -0.13921100
 H	     3.45899800	    -2.04137100	     1.17799400
 H	     4.01253000	    -3.29280500	     0.07744800
 H	     4.22531100	    -1.67405500	    -1.76900100
 H	     2.59055600	    -1.62661500	    -1.12311200
 H	     3.31527500	     2.56635400	     1.46896600
 H	     3.39116900	     2.71881700	    -0.31305000
 H	    -5.24272800	     1.59860600	     0.25091000
 H	    -5.36514600	     0.48193800	    -1.10862900
 H	    -7.14537200	     0.02261400	     0.56292700
 H	    -5.93795600	    -0.17549500	     1.83178900
 Co	     0.04827300	    -1.13482500	    -0.53762700
 H	     0.07914200	    -1.70117000	    -2.10509600
 H	     0.01433100	    -2.26537800	     0.68729000

