84
CoH2L159.xyz
 C	     4.05349200	     4.60225900	    -2.59395700
 C	     4.26043500	     4.10600900	    -1.14682100
 C	     3.23044300	     3.01141600	    -0.82918500
 C	     1.85777900	     3.31690700	    -0.90128000
 C	     0.84563500	     2.38684700	    -0.63107000
 C	    -0.55032800	     2.79985000	    -0.66946900
 N	    -1.55237700	     2.10632600	    -0.26234500
 C	    -2.76455100	     2.92518600	    -0.41457600
 C	    -2.25974500	     4.15415500	    -1.22124400
 O	    -0.81496200	     4.04371800	    -1.16495500
 C	     1.21720800	     1.06381700	    -0.29006300
 N	     0.42671000	    -0.03613400	    -0.02237500
 C	     1.30053100	    -1.06618600	     0.24210800
 C	     1.03838200	    -2.41980200	     0.57295500
 C	    -0.31164100	    -2.95239300	     0.62120100
 N	    -1.38952800	    -2.34643600	     0.24720000
 C	    -2.53797600	    -3.24106700	     0.48479500
 C	    -1.86356700	    -4.55610200	     0.95748200
 O	    -0.46180500	    -4.21420100	     1.09964600
 C	     2.12605900	    -3.26740700	     0.83544600
 C	     3.46644200	    -2.85050500	     0.77012900
 C	     4.58283900	    -3.85941800	     1.08056500
 C	     4.49648100	    -5.04616200	     0.09716600
 C	     4.41622300	    -4.38266400	     2.52332000
 C	     5.98135500	    -3.23386500	     0.95586700
 C	     3.72086500	    -1.51831800	     0.41741500
 C	     2.66645100	    -0.64294100	     0.15912100
 C	     2.60980400	     0.75136600	    -0.20642700
 C	     3.59238100	     1.70935900	    -0.46721100
 C	     5.70539600	     3.59851800	    -1.01572900
 C	     4.07551000	     5.28953700	    -0.17313800
 H	     4.77834100	     5.38929400	    -2.83819000
 H	     4.18626300	     3.78257300	    -3.30993900
 H	     3.04962000	     5.01496900	    -2.74070200
 H	     1.55162500	     4.32133500	    -1.16938000
 H	    -3.50260600	     2.35899800	    -0.98864500
 H	    -2.56196300	     4.11695100	    -2.27221400
 H	    -2.54508600	     5.11420700	    -0.78761100
 H	    -3.14617300	    -2.80485900	     1.28331200
 H	    -1.94258400	    -5.35992000	     0.22015700
 H	    -2.22722400	    -4.90741600	     1.92493500
 H	     1.90344300	    -4.29628200	     1.09240900
 H	     3.53415300	    -5.56408000	     0.17059200
 H	     4.61510400	    -4.70438100	    -0.93789100
 H	     5.28678700	    -5.77801500	     0.30738500
 H	     4.47920000	    -3.56054500	     3.24603400
 H	     5.20391200	    -5.10836700	     2.76280000
 H	     3.45023100	    -4.87918600	     2.66485900
 H	     6.11696500	    -2.39855800	     1.65250500
 H	     6.17440700	    -2.86739900	    -0.05896700
 H	     6.74403800	    -3.98641800	     1.18762200
 H	     4.73948100	    -1.15145900	     0.34558600
 H	     4.63716100	     1.42614300	    -0.39324400
 H	     5.91070900	     2.77268600	    -1.70655000
 H	     6.40425600	     4.40964200	    -1.25120800
 H	     5.92551200	     3.25565900	     0.00185800
 H	     4.80382100	     6.08177500	    -0.38841800
 H	     3.07435900	     5.72663800	    -0.25169300
 H	     4.21987700	     4.96688400	     0.86480200
 Co	    -1.65820500	    -0.25629000	    -0.11843500
 H	    -2.76014200	    -0.03500600	     1.20645900
 H	    -2.32257200	    -0.11323300	    -1.71485200
 C	    -3.36817200	     3.31285400	     0.92130200
 C	    -2.55593000	     3.68522800	     1.99936100
 C	    -4.75820900	     3.37001000	     1.06891400
 C	    -3.12451800	     4.10986600	     3.20053300
 H	    -1.47568400	     3.62738900	     1.90208000
 C	    -5.33018600	     3.79644600	     2.26909700
 H	    -5.39461400	     3.07219500	     0.23910000
 C	    -4.51384300	     4.16870300	     3.33929200
 H	    -2.48185400	     4.39017200	     4.03101600
 H	    -6.41187800	     3.83034100	     2.36977900
 H	    -4.95612200	     4.49665200	     4.27618100
 C	    -3.40540800	    -3.42009700	    -0.74193700
 C	    -2.82976400	    -3.70271700	    -1.98734900
 C	    -4.79704800	    -3.34668300	    -0.63698400
 C	    -3.63397000	    -3.91115700	    -3.10654900
 H	    -1.74790400	    -3.74366100	    -2.08030100
 C	    -5.60590900	    -3.55728200	    -1.75661300
 H	    -5.24810800	    -3.11664100	     0.32495500
 C	    -5.02600900	    -3.84111000	    -2.99386800
 H	    -3.17516900	    -4.12224900	    -4.06874700
 H	    -6.68658200	    -3.49348800	    -1.66140000
 H	    -5.65259200	    -4.00066700	    -3.86722300

