45
CoH2L131.xyz
 C	    -2.76053500	     1.76500600	     0.73710400
 C	    -2.55535300	     0.22699200	     0.65129800
 N	    -1.12054800	     0.10474900	     0.32176800
 C	    -0.63943900	     1.29054400	     0.23355300
 C	     0.77811400	     1.46871300	    -0.13073400
 N	     1.51219400	     0.43614100	    -0.33462400
 C	     2.86545600	     0.91919300	    -0.68680100
 C	     3.92539800	     0.39973900	     0.28722700
 C	     4.07610700	    -1.12896800	     0.34792700
 C	     4.41816400	    -1.73933900	    -1.01636800
 C	     5.13625500	    -1.49901400	     1.39167700
 C	     2.70517200	     2.46402200	    -0.64754100
 O	     1.29826100	     2.68478300	    -0.27047600
 O	    -1.43012500	     2.33622300	     0.45572400
 H	    -3.06074100	     2.11863900	     1.72393100
 H	    -2.71346400	    -0.24565500	     1.62431800
 H	     3.08634200	     0.57844600	    -1.70167500
 H	     3.68433200	     0.78376800	     1.28780900
 H	     4.88534300	     0.85017400	    -0.00380400
 H	     3.11705000	    -1.55001200	     0.67679900
 H	     5.33612100	    -1.29743700	    -1.42780000
 H	     4.58073400	    -2.81956400	    -0.92333100
 H	     3.61439500	    -1.59339700	    -1.74647900
 H	     6.12335300	    -1.11184000	     1.10472700
 H	     4.88795300	    -1.08602400	     2.37714000
 H	     5.22139300	    -2.58713700	     1.49534800
 H	     2.85915600	     2.94913700	    -1.61207200
 H	     3.31985900	     2.94416200	     0.11667200
 C	    -3.40679500	    -0.46332000	    -0.41743700
 H	    -3.19287200	     0.01644200	    -1.38196100
 H	    -3.07379900	    -1.50589800	    -0.49864200
 C	    -4.92159000	    -0.42993300	    -0.14842700
 C	    -5.29959600	    -1.17228300	     1.13934000
 C	    -5.66902500	    -1.01897100	    -1.35075100
 H	    -5.23153200	     0.62057000	    -0.04181200
 H	    -4.85422000	    -0.71496900	     2.03017000
 H	    -6.38700500	    -1.17252700	     1.28027800
 H	    -4.96724900	    -2.21775500	     1.09736300
 H	    -5.43367900	    -0.47514400	    -2.27356900
 H	    -5.39356500	    -2.07074000	    -1.50253700
 H	    -6.75423300	    -0.97582700	    -1.19983900
 H	    -3.43850000	     2.15692700	    -0.02368700
 Co	     0.34706000	    -1.39002300	    -0.13870600
 H	     0.66345200	    -2.39204200	     1.15624800
 H	     0.15013900	    -2.12025800	    -1.62093300

