24
CoH2L149.xyz
 N	    -0.88047200	    -0.74679800	    -0.66464200
 C	    -0.06956800	     0.40165800	    -0.17962700
 C	     1.42291400	     0.14225700	    -0.12722900
 C	     2.30691200	     1.01521200	    -0.77136000
 C	     3.68564300	     0.80533000	    -0.70862700
 C	     4.19477700	    -0.28391200	     0.00063400
 C	     3.31949800	    -1.16025500	     0.64768200
 C	     1.94234500	    -0.94678600	     0.58687600
 C	    -0.60825600	     0.80131900	     1.19800800
 O	    -2.03176400	     1.05592300	     1.15150200
 H	    -0.62517000	    -1.59725400	    -0.15908000
 H	    -0.67529800	    -0.92567400	    -1.64829800
 H	    -0.26124700	     1.22639900	    -0.87393400
 H	     1.91169500	     1.86296400	    -1.32558400
 H	     4.35945000	     1.49044300	    -1.21555400
 H	     5.26714500	    -0.45099200	     0.04838500
 H	     3.70947200	    -2.00948600	     1.20174100
 H	     1.27199800	    -1.63463600	     1.09685900
 H	    -0.08509000	     1.68369800	     1.57593900
 H	    -0.47973300	    -0.01560000	     1.91273400
 H	    -2.17909100	     1.94239000	     0.77405100
 Co	    -2.94922700	    -0.31762100	    -0.31919600
 H	    -3.79811800	    -1.63424300	     0.24438700
 H	    -3.53507200	     0.76902800	    -1.45100100

