73
CoH2L24.xyz
 C	     5.10643400	    -1.99338700	    -2.56400500
 C	     3.75047400	    -1.93717000	    -1.90773300
 C	     3.54072600	    -2.51112700	    -0.64511700
 C	     2.31042300	    -2.41151900	    -0.00345200
 C	     1.25427200	    -1.73767300	    -0.62424400
 N	     0.00968700	    -1.63527600	     0.05392600
 C	    -0.79754000	    -2.84222400	     0.35541800
 C	    -2.23215800	    -2.26622700	     0.55629300
 C	    -3.31525000	    -2.87872600	    -0.33933700
 C	    -3.87874200	    -4.24051500	     0.11606500
 C	    -4.64532400	    -4.13046900	     1.44081300
 C	    -2.82047000	    -5.34883200	     0.19060500
 N	    -2.08496600	    -0.81925400	     0.28271600
 C	    -0.83561500	    -0.56993600	     0.02638000
 C	    -0.47554700	     0.84114700	    -0.27063900
 N	    -1.43112200	     1.61995100	    -0.68587400
 C	    -0.87743600	     2.98210400	    -0.87136400
 C	    -1.51191900	     3.94999600	     0.13744800
 C	    -1.45689700	     5.43477800	    -0.26151500
 C	    -2.19270900	     6.27871000	     0.78641800
 C	    -0.03229400	     5.96331200	    -0.47200100
 C	     0.65947600	     2.78207000	    -0.71870700
 N	     0.75595400	     1.40791400	    -0.17640800
 C	     1.85252600	     0.97096900	     0.60504000
 C	     3.15040300	     1.11821500	     0.10281600
 C	     4.23695400	     0.68167000	     0.85391400
 C	     4.06038800	     0.08247900	     2.10998600
 C	     5.24243100	    -0.44043400	     2.88618200
 C	     2.75623500	    -0.03473800	     2.60598400
 C	     1.65899400	     0.41633200	     1.87408200
 C	     1.42993000	    -1.19835700	    -1.90196200
 C	     2.67382500	    -1.28838700	    -2.52497400
 H	     5.03617800	    -1.82654200	    -3.64369000
 H	     5.77010100	    -1.22036600	    -2.15314100
 H	     5.59442900	    -2.95993000	    -2.39658200
 H	     4.35930400	    -3.02664700	    -0.14928800
 H	     2.17061000	    -2.82842900	     0.98841500
 H	    -0.73384900	    -3.52956800	    -0.49245800
 H	    -0.41499800	    -3.34464900	     1.24691400
 H	    -2.52907300	    -2.36193000	     1.60510600
 H	    -2.91298800	    -2.96090100	    -1.35788400
 H	    -4.14309200	    -2.16142400	    -0.38810800
 H	    -4.60316500	    -4.53095900	    -0.65753700
 H	    -5.14172000	    -5.07842100	     1.68118900
 H	    -3.97781600	    -3.89197900	     2.27811800
 H	    -5.41402800	    -3.34982500	     1.39236700
 H	    -2.26561500	    -5.44248800	    -0.75050400
 H	    -3.29259400	    -6.31690200	     0.39726500
 H	    -2.09664600	    -5.16459400	     0.99443400
 H	    -1.12041900	     3.30952900	    -1.88634600
 H	    -2.56298600	     3.66136300	     0.25308400
 H	    -1.03680400	     3.80228200	     1.11813400
 H	    -1.99595600	     5.53324900	    -1.21555900
 H	    -2.22695900	     7.33415000	     0.49036300
 H	    -1.68657700	     6.22108300	     1.75908900
 H	    -3.22387000	     5.93254700	     0.92509300
 H	     0.48524000	     5.44883100	    -1.28989100
 H	    -0.05206500	     7.03124800	    -0.72108700
 H	     0.57074300	     5.84669400	     0.43796400
 H	     1.11859500	     3.47857500	    -0.01650300
 H	     1.18397600	     2.84351300	    -1.67750500
 H	     3.29991000	     1.54839800	    -0.88191600
 H	     5.24019400	     0.79070900	     0.44958200
 H	     6.08560000	     0.25885300	     2.85390400
 H	     5.59634900	    -1.39155400	     2.46582800
 H	     4.98501900	    -0.61851000	     3.93518700
 H	     2.59485100	    -0.47383500	     3.58710000
 H	     0.65904700	     0.34425500	     2.28949700
 H	     0.59937600	    -0.71692500	    -2.40871700
 H	     2.80483300	    -0.85669800	    -3.51393400
 Co	    -3.35725400	     0.76689800	    -0.37578300
 H	    -4.20613300	     0.39883300	    -1.77099100
 H	    -4.28755900	     1.51701800	     0.79426900

