39
CoH2L129.xyz
 C	    -5.20218600	     0.04277300	    -0.09510900
 C	    -3.76776700	    -0.37553400	    -0.44311000
 C	    -2.77602800	     0.35338400	     0.47360000
 C	    -2.82176000	     1.89939600	     0.36623000
 O	    -1.40833900	     2.30403800	     0.27213400
 C	    -0.73765900	     1.16806200	     0.09808500
 C	     0.71939700	     1.17659900	    -0.12259200
 O	     1.38676100	     2.32022500	    -0.25837900
 N	     1.35406200	     0.06415900	    -0.19382600
 C	     2.76604100	     0.38426500	    -0.49850600
 C	     2.80481100	     1.92289300	    -0.32159900
 N	    -1.36430900	     0.04943500	     0.15023000
 C	    -3.60171400	    -1.89432200	    -0.33688500
 H	    -5.36058600	     1.12194500	    -0.20764200
 H	    -5.44532300	    -0.22845200	     0.94020000
 H	    -5.91687200	    -0.46615500	    -0.75107200
 H	    -3.54673100	    -0.06340000	    -1.47381300
 H	    -2.94841700	     0.02700600	     1.50714300
 H	    -3.31032200	     2.25009800	    -0.54683800
 H	    -3.24595500	     2.39986800	     1.23566400
 H	     2.94080800	     0.10742900	    -1.54641000
 H	     3.25757100	     2.46235000	    -1.15222700
 H	    -4.31036400	    -2.40235100	    -1.00101800
 H	    -3.79735200	    -2.23566200	     0.68774300
 H	    -2.59148900	    -2.21377200	    -0.61399000
 C	     3.75714800	    -0.38713400	     0.38251100
 C	     5.19030400	     0.06405200	     0.07245100
 C	     3.60668500	    -1.89840800	     0.18327500
 H	     3.52449500	    -0.13971700	     1.42789300
 H	     5.33880000	     1.13463200	     0.25718500
 H	     5.90477200	    -0.48160600	     0.69843100
 H	     5.44248900	    -0.13652800	    -0.97674100
 H	     2.59828700	    -2.24484800	     0.43449400
 H	     3.81120900	    -2.17503400	    -0.85894100
 H	     4.31617200	    -2.43906000	     0.82011000
 H	     3.26003300	     2.23190900	     0.62355600
 Co	     0.02217200	    -1.63120100	     0.06769400
 H	     0.09275800	    -2.34828500	     1.56641300
 H	     0.00808400	    -2.64334500	    -1.25284100

