102
CoH2L164.xyz
 C	     2.30109200	     3.38845400	    -0.02505900
 C	     1.11425300	     3.95785700	     0.75323300
 C	    -0.04192000	     2.93177100	     0.98077200
 C	     0.53138200	     1.77216700	     1.76163900
 O	     0.91263400	     2.10153200	     3.01014100
 N	     0.76664900	     0.56721800	     1.38513300
 C	     1.54024700	    -0.09238900	     2.46081300
 C	     1.42738200	     0.88844600	     3.65680700
 C	     2.84102700	     1.13044000	     4.19823900
 C	     3.74032100	     0.64035600	     3.08617000
 C	     3.01910800	    -0.08677500	     2.13279400
 C	     3.64014100	    -0.62058200	     1.00827400
 C	     5.01619500	    -0.41974300	     0.82465000
 C	     5.69152600	    -0.92174600	    -0.40592900
 C	     6.62472200	    -1.98002900	    -0.32483200
 C	     6.93827500	    -2.63707700	     0.90829300
 C	     7.84855600	    -3.66107100	     0.95598200
 C	     8.50859700	    -4.10380300	    -0.22660800
 C	     8.22808300	    -3.51370400	    -1.43021100
 C	     7.28187800	    -2.44571100	    -1.52494800
 C	     6.97626500	    -1.85131400	    -2.75289300
 C	     6.04907800	    -0.80930500	    -2.84876000
 C	     5.39449200	    -0.32661300	    -1.65437600
 C	     4.47606100	     0.76388600	    -1.78908700
 C	     4.20902600	     1.32102000	    -3.01266400
 C	     4.84347300	     0.83019800	    -4.19007300
 C	     5.73904900	    -0.20254500	    -4.10619100
 C	     5.73943000	     0.29991000	     1.79191400
 C	     5.11184600	     0.82846700	     2.92184800
 C	    -1.18462700	     3.59642900	     1.81278500
 C	    -2.38284400	     2.67751700	     2.05362700
 C	    -0.62976700	     2.54145700	    -0.35493100
 O	    -1.06277700	     3.59133500	    -1.07807700
 N	    -0.83495100	     1.37509700	    -0.85085500
 C	    -1.65123200	     1.54975500	    -2.07291200
 C	    -1.59231200	     3.07484300	    -2.34654800
 C	    -3.02817900	     3.56624400	    -2.56234500
 C	    -3.87655600	     2.45087500	    -1.99477400
 C	    -3.11394900	     1.30028200	    -1.76608300
 C	    -3.68059700	     0.15347900	    -1.21999200
 C	    -5.04221000	     0.15428500	    -0.88270400
 C	    -5.65101900	    -1.03381000	    -0.21961900
 C	    -6.62284800	    -1.80811700	    -0.89372800
 C	    -7.04025800	    -1.52444400	    -2.23391000
 C	    -7.98740000	    -2.29227600	    -2.86076700
 C	    -8.58224700	    -3.40237900	    -2.19451800
 C	    -8.20012300	    -3.72088200	    -0.91864000
 C	    -7.21297500	    -2.94857300	    -0.23017300
 C	    -6.80365200	    -3.28053500	     1.06455100
 C	    -5.83685300	    -2.52952900	     1.73958800
 C	    -5.25019800	    -1.37775700	     1.09338300
 C	    -4.29088900	    -0.61345800	     1.83312000
 C	    -3.92067800	    -0.97443300	     3.10256000
 C	    -4.48661300	    -2.12270500	     3.72752800
 C	    -5.42037900	    -2.87311200	     3.06388300
 C	    -5.80821000	     1.30754300	    -1.12830100
 C	    -5.23596700	     2.45326100	    -1.68530300
 H	     3.03985000	     4.17422800	    -0.21541500
 H	     1.98946900	     2.97882700	    -0.99297800
 H	     2.80119600	     2.58791900	     0.52939400
 H	     1.43897800	     4.31044000	     1.73660300
 H	     0.68657900	     4.81430200	     0.22492100
 H	     1.13020600	    -1.08624400	     2.65076800
 H	     0.69885500	     0.60757200	     4.41821000
 H	     2.99506000	     2.18321200	     4.45610200
 H	     2.98660800	     0.54807300	     5.11671800
 H	     3.06425100	    -1.15545200	     0.25898600
 H	     6.43630700	    -2.31654000	     1.81425900
 H	     8.06785200	    -4.14622200	     1.90312600
 H	     9.22797900	    -4.91580300	    -0.16774100
 H	     8.71738900	    -3.84868400	    -2.34134500
 H	     7.46971000	    -2.20867000	    -3.65372600
 H	     3.98697000	     1.15081700	    -0.90399800
 H	     3.50832800	     2.14812500	    -3.08691400
 H	     4.61611300	     1.28268300	    -5.15128300
 H	     6.23545600	    -0.58226100	    -4.99569100
 H	     6.80359600	     0.45869800	     1.64286000
 H	     5.68639400	     1.39395800	     3.65076800
 H	    -0.75050900	     3.91501700	     2.76408700
 H	    -1.49887400	     4.49787800	     1.27914000
 H	    -2.08299200	     1.74558900	     2.54681700
 H	    -2.88442900	     2.41265300	     1.11702800
 H	    -3.11772500	     3.17444200	     2.69582900
 H	    -1.25032400	     0.92952100	    -2.87693700
 H	    -0.89220200	     3.37961900	    -3.12529600
 H	    -3.19607900	     4.53489800	    -2.08069200
 H	    -3.21081000	     3.70239700	    -3.63577900
 H	    -3.07070200	    -0.72123600	    -1.01511000
 H	    -6.58840800	    -0.68935500	    -2.75719000
 H	    -8.28565800	    -2.05851700	    -3.87905700
 H	    -9.33247700	    -3.99740700	    -2.70773200
 H	    -8.63764400	    -4.57201400	    -0.40281700
 H	    -7.24589900	    -4.14339700	     1.55713300
 H	    -3.85234400	     0.26439400	     1.37592200
 H	    -3.18985700	    -0.37730700	     3.64107600
 H	    -4.17776900	    -2.39456700	     4.73304700
 H	    -5.86652900	    -3.74697100	     3.53201500
 H	    -6.86062700	     1.30757800	    -0.85959300
 H	    -5.84214300	     3.33978600	    -1.85203200
 Co	     0.01208800	    -0.43871500	    -0.27410400
 H	    -0.98910400	    -1.65557100	     0.29706000
 H	     1.04681200	    -0.94739600	    -1.48964200

