56
CoH2L81.xyz
 C	    -0.27702700	     3.43595700	     1.16203400
 C	    -0.04317100	     2.44741400	    -0.00450200
 C	     0.24653600	     3.23383700	    -1.31582100
 C	    -1.30542700	     1.64006000	    -0.23035700
 N	    -1.44161700	     0.38729900	    -0.47924200
 C	    -2.88847300	     0.09174600	    -0.59115000
 C	    -3.33973200	    -0.76040300	     0.61050800
 C	    -4.79960500	    -1.13537300	     0.52271600
 C	    -5.76330800	    -0.47324100	     1.29427900
 C	    -7.11766800	    -0.79644600	     1.17990700
 C	    -7.52679500	    -1.78934400	     0.28833700
 C	    -6.57375100	    -2.45847800	    -0.48507000
 C	    -5.22243400	    -2.13297700	    -0.36792700
 C	    -3.51622500	     1.49722700	    -0.64163900
 O	    -2.43032900	     2.37613000	    -0.21359000
 C	     1.17928000	     1.60103100	     0.28531500
 N	     1.38775200	     0.36502000	     0.01199500
 C	     2.75888800	     0.01174700	     0.43820400
 C	     3.53976800	    -0.65789300	    -0.70109800
 C	     4.92849300	    -1.05703100	    -0.25913100
 C	     5.11137300	    -2.16460500	     0.58204100
 C	     6.38360400	    -2.51526900	     1.03354500
 C	     7.49674000	    -1.76156900	     0.65017500
 C	     7.32719900	    -0.65934500	    -0.18921800
 C	     6.05118800	    -0.31082100	    -0.63910200
 C	     3.33947600	     1.36604100	     0.89773900
 O	     2.19779800	     2.27699400	     0.84350000
 H	    -1.12706000	     4.08071200	     0.93371900
 H	    -0.48145600	     2.90153100	     2.09545100
 H	     0.60854700	     4.05760600	     1.30213000
 H	     1.13939700	     3.85084300	    -1.18316000
 H	    -0.60010700	     3.88524400	    -1.54785200
 H	     0.40848600	     2.54696800	    -2.15203800
 H	    -3.06633900	    -0.45922800	    -1.51729300
 H	    -2.71048400	    -1.65657600	     0.63658200
 H	    -3.14478700	    -0.19557600	     1.53005700
 H	    -5.44818900	     0.29509300	     1.99618400
 H	    -7.85054400	    -0.27462700	     1.78957900
 H	    -8.57927500	    -2.04413300	     0.19906400
 H	    -6.88339000	    -3.23755400	    -1.17652200
 H	    -4.48416400	    -2.66076900	    -0.96736800
 H	    -4.35009900	     1.64162500	     0.04546200
 H	    -3.80732800	     1.80395300	    -1.64915400
 H	     2.67815900	    -0.69047700	     1.27387200
 H	     2.97158300	    -1.53653900	    -1.02739100
 H	     3.58902000	     0.03561600	    -1.54814200
 H	     4.24895000	    -2.75730800	     0.87830600
 H	     6.50740900	    -3.37898100	     1.68139200
 H	     8.48846800	    -2.03549000	     0.99956400
 H	     8.18744500	    -0.07114800	    -0.49757100
 H	     5.92514300	     0.54412700	    -1.29893400
 H	     4.10320300	     1.76014500	     0.22235300
 H	     3.71617200	     1.36673400	     1.92063100
 Co	     0.07385500	    -0.98456500	    -0.86478400
 H	     0.26593900	    -1.19834700	    -2.51638100
 H	     0.00496000	    -2.39501800	     0.03934700

