41
CoH2L125.xyz
 C	    -0.67527600	     1.42471600	    -0.29602400
 C	     0.67515300	     1.42489900	     0.29538400
 O	     1.30740900	     2.56369300	     0.56345100
 N	     1.24685600	     0.30559200	     0.55324100
 C	     2.57010400	     0.60665200	     1.14309400
 C	     2.63292400	     2.16178100	     1.06382400
 C	     3.68685000	    -0.10350900	     0.41185200
 C	     3.80314600	    -0.00066400	    -0.98049400
 C	     4.84157000	    -0.64775500	    -1.64858500
 C	     5.77562400	    -1.40086400	    -0.93101100
 C	     5.66376000	    -1.50643000	     0.45604900
 C	     4.62000600	    -0.86188800	     1.12398100
 N	    -1.24683100	     0.30522900	    -0.55339100
 C	    -2.57006600	     0.60583200	    -1.14351000
 C	    -3.68679400	    -0.10380600	    -0.41174200
 C	    -3.80382800	     0.00121400	     0.98039000
 C	    -4.84221100	    -0.64537400	     1.64901300
 C	    -5.77548400	    -1.40018500	     0.93219100
 C	    -5.66285600	    -1.50795200	    -0.45462900
 C	    -4.61915000	    -0.86387100	    -1.12309900
 C	    -2.63292600	     2.16102300	    -1.06534600
 O	    -1.30761200	     2.56331200	    -0.56473800
 H	     2.55419900	     0.27248500	     2.18422800
 H	     2.77454100	     2.64216000	     2.03157300
 H	     3.07679300	     0.57839300	    -1.54462600
 H	     4.92035900	    -0.56753000	    -2.72909800
 H	     6.58395500	    -1.90542200	    -1.45273800
 H	     6.38393700	    -2.09324200	     1.01924600
 H	     4.52729500	    -0.94897800	     2.20354300
 H	    -2.55412200	     0.27090700	    -2.18439600
 H	    -3.07807700	     0.58157600	     1.54396200
 H	    -4.92159100	    -0.56343500	     2.72935400
 H	    -6.58379300	    -1.90435500	     1.45432400
 H	    -6.38241700	    -2.09608400	    -1.01723600
 H	    -4.52587900	    -0.95264900	    -2.20247600
 H	    -3.37092500	     2.52666400	    -0.34942100
 H	    -2.77415200	     2.64070700	    -2.03349900
 Co	    -0.00006400	    -1.40150900	     0.00011400
 H	     0.48826200	    -2.26129400	    -1.33621700
 H	    -0.48911200	    -2.26076000	     1.33639800
 H	     3.37062700	     2.52691100	     0.34732900

