116
CoH2L3.xyz
 C	    -7.15816900	     4.36058900	    -2.97421200
 C	    -7.81459000	     4.12291100	    -1.60511500
 C	    -9.21474700	     3.51526400	    -1.83697100
 C	    -7.96139000	     5.48572400	    -0.89479900
 C	    -6.99182700	     3.17622000	    -0.72155900
 C	    -7.44594600	     2.85009600	     0.56807900
 C	    -6.73134800	     1.99391400	     1.39955700
 C	    -5.52011000	     1.42060700	     0.97782400
 C	    -4.75811200	     0.49019000	     1.84245900
 C	    -5.42487000	    -0.42334100	     2.68220800
 C	    -4.72409900	    -1.36193900	     3.44066800
 C	    -3.33181600	    -1.39189400	     3.36925700
 C	    -2.66213400	    -0.46784100	     2.56091400
 C	    -3.35407100	     0.46646000	     1.80059000
 C	    -1.16628600	    -0.68803500	     2.61521800
 N	    -0.60441200	    -1.02531200	     1.28885200
 C	    -0.39503600	    -2.28952100	     1.26050700
 C	     0.08209500	    -3.16792700	     0.12555800
 C	    -1.10406100	    -4.11805500	    -0.27395700
 C	    -2.32977100	    -3.36447500	    -0.73411600
 C	    -3.35536100	    -3.05948600	     0.16918800
 C	    -4.45530800	    -2.29886000	    -0.22867900
 C	    -4.54129500	    -1.82269800	    -1.53792600
 C	    -3.53148300	    -2.13257000	    -2.45217700
 C	    -2.43771800	    -2.90206900	    -2.05366300
 C	     1.29265000	    -4.03518800	     0.62287300
 C	     2.51427500	    -3.21001900	     0.95627300
 C	     2.61506100	    -2.53011100	     2.17886300
 C	     3.71119600	    -1.71094500	     2.45155100
 C	     4.73346800	    -1.57064600	     1.51004000
 C	     4.65422100	    -2.26142900	     0.29995700
 C	     3.55031200	    -3.06932600	     0.02449400
 C	     0.53387700	    -2.40654500	    -1.09961800
 N	     0.65152900	    -1.14323600	    -1.28152100
 C	     1.23821600	    -0.93602200	    -2.62293500
 C	     2.72366000	    -0.65276800	    -2.55647700
 C	     3.36316400	     0.36344600	    -1.85807600
 C	     4.76587200	     0.43982300	    -1.87797400
 C	     5.47416100	     1.45611000	    -1.06589800
 C	     6.66803000	     2.04826300	    -1.49862200
 C	     7.33778900	     2.98437200	    -0.70886600
 C	     6.84650200	     3.36873800	     0.54566300
 C	     7.55546500	     4.39037100	     1.44420500
 C	     6.60930900	     5.58137100	     1.70740300
 C	     7.91858800	     3.72234800	     2.78796600
 C	     8.84675400	     4.92966600	     0.80891600
 C	     5.64713600	     2.77293500	     0.97295100
 C	     4.97433400	     1.84003800	     0.19119700
 C	     5.48375200	    -0.50391100	    -2.63817300
 C	     4.83562000	    -1.52751400	    -3.33057200
 C	     3.44508200	    -1.61224400	    -3.27421000
 C	     2.52977000	    -2.64101300	    -3.89852800
 C	     1.15847700	    -2.33393400	    -3.28543000
 O	     0.88161800	    -3.20231700	    -2.13282200
 O	    -0.66504700	    -2.97390100	     2.39175100
 C	    -1.00935500	    -1.99717200	     3.43191900
 C	    -2.36646500	    -2.31992700	     4.07096300
 C	    -5.06043600	     1.74235700	    -0.30760900
 C	    -5.78276800	     2.60224300	    -1.13614100
 H	    -7.05141900	     3.42923700	    -3.54201200
 H	    -6.16682000	     4.81725300	    -2.87623000
 H	    -7.78052600	     5.04098300	    -3.56658900
 H	    -9.81989800	     4.18155300	    -2.46405700
 H	    -9.75239000	     3.36275300	    -0.89504300
 H	    -9.14082000	     2.54559800	    -2.34340900
 H	    -6.98019000	     5.94124400	    -0.71705600
 H	    -8.55022600	     6.17489600	    -1.51262100
 H	    -8.46714900	     5.38768800	     0.07162200
 H	    -8.37304400	     3.27875600	     0.93751800
 H	    -7.10641400	     1.78500500	     2.39763500
 H	    -6.51060500	    -0.42469900	     2.70751900
 H	    -5.26373300	    -2.07225700	     4.06171100
 H	    -2.81371000	     1.16145500	     1.16584300
 H	    -0.61768400	     0.16227900	     3.02623400
 H	    -0.73337500	    -4.78262400	    -1.05805400
 H	    -1.33556000	    -4.73078800	     0.60098100
 H	    -3.29018900	    -3.41565400	     1.19297100
 H	    -5.23612400	    -2.06977900	     0.48794500
 H	    -5.38936500	    -1.21648300	    -1.84291500
 H	    -3.59556100	    -1.77769300	    -3.47718500
 H	    -1.66618300	    -3.15297900	    -2.77564800
 H	     0.94916100	    -4.59913200	     1.49331800
 H	     1.52249700	    -4.75231600	    -0.16862700
 H	     1.83792100	    -2.65141000	     2.92721200
 H	     3.76864100	    -1.18713800	     3.40182900
 H	     5.58440200	    -0.92856900	     1.71740400
 H	     5.44401200	    -2.16294600	    -0.43629700
 H	     3.48925200	    -3.59271500	    -0.92518500
 H	     0.67129900	    -0.16228500	    -3.14526400
 H	     2.78254900	     1.08202900	    -1.28814600
 H	     7.07239000	     1.79297300	    -2.47428000
 H	     8.25354400	     3.41923800	    -1.09309800
 H	     7.09902900	     6.32063700	     2.35323300
 H	     5.68574200	     5.26369600	     2.20253300
 H	     6.33470000	     6.07736300	     0.76907700
 H	     7.02944600	     3.35995100	     3.31461400
 H	     8.58952000	     2.86918900	     2.63221600
 H	     8.42680500	     4.43978800	     3.44396200
 H	     9.31524700	     5.65239100	     1.48660100
 H	     9.57344500	     4.13067800	     0.62198600
 H	     8.65048000	     5.44300900	    -0.13931000
 H	     5.22884700	     3.03459600	     1.94037800
 H	     4.06312800	     1.38581100	     0.56821400
 H	     6.56892600	    -0.46186700	    -2.64656100
 H	     5.41501200	    -2.26208400	    -3.88394500
 H	     2.83397900	    -3.67403500	    -3.69942000
 H	     2.47630900	    -2.52697900	    -4.98841400
 H	     0.32553600	    -2.46604300	    -3.97718700
 H	    -0.17916800	    -1.99662800	     4.13911400
 H	    -2.61780800	    -3.37946200	     3.95375000
 H	    -2.32393100	    -2.11812600	     5.14838200
 H	    -4.13820400	     1.30219200	    -0.67528400
 H	    -5.38681600	     2.81440900	    -2.12275700
 Co	    -0.12140200	     0.40500100	    -0.13951700
 H	     0.92934300	     1.49083100	     0.59853700
 H	    -1.30036300	     1.17196800	    -1.05329500

