66
CoH2L113.xyz
 C	    -1.21569500	     0.89596900	    -0.41836200
 C	    -0.02662900	     1.78344500	    -0.10327600
 C	    -0.40278900	     2.49069000	     1.25452400
 C	     0.36388500	     3.76814900	     1.63028300
 C	    -0.21339400	     5.04856100	     1.01352100
 C	    -0.01761300	     5.19764800	    -0.49771700
 C	    -0.59863600	     4.06174600	    -1.35158300
 C	     0.21634200	     2.75916700	    -1.30634300
 C	     1.25521300	     1.00697100	     0.13409600
 N	     1.44117300	    -0.25830800	     0.25392100
 C	     2.88114000	    -0.50660000	     0.48867300
 C	     3.49136300	    -1.27469000	    -0.69729000
 C	     4.93944700	    -1.62605800	    -0.45086200
 C	     5.97369400	    -0.91784200	    -1.07575900
 C	     7.31139100	    -1.22226500	    -0.81073400
 C	     7.63247200	    -2.24170900	     0.08686200
 C	     6.60846900	    -2.95667700	     0.71498200
 C	     5.27439400	    -2.65037500	     0.44728100
 C	     3.44688000	     0.91289300	     0.68420500
 O	     2.34479100	     1.78376500	     0.28722900
 N	    -1.37634600	    -0.36415200	    -0.22879500
 C	    -2.77525000	    -0.71781800	    -0.55648700
 C	    -3.50674100	    -1.19146800	     0.71271700
 C	    -4.93049000	    -1.60176000	     0.42096800
 C	    -5.19756400	    -2.80784100	    -0.24363200
 C	    -6.50637900	    -3.17634800	    -0.55448600
 C	    -7.57246700	    -2.34244300	    -0.20468700
 C	    -7.31910800	    -1.14111800	     0.45915400
 C	    -6.00661400	    -0.77509200	     0.76824700
 C	    -3.32946500	     0.58820100	    -1.15925200
 O	    -2.27812000	     1.56675500	    -0.89968300
 H	    -1.47063400	     2.72812200	     1.21237600
 H	    -0.28654300	     1.73567000	     2.04035100
 H	     0.30848700	     3.85957700	     2.72232600
 H	     1.42571900	     3.67002700	     1.38429000
 H	    -1.28803900	     5.09353600	     1.24367600
 H	     0.24458900	     5.91366400	     1.51128700
 H	    -0.47905000	     6.14303100	    -0.81289300
 H	     1.05589600	     5.29071800	    -0.71823000
 H	    -0.60278500	     4.39074100	    -2.39841700
 H	    -1.64425200	     3.88014300	    -1.08577000
 H	     1.27529900	     3.02639700	    -1.30977700
 H	     0.04433900	     2.18327600	    -2.22241700
 H	     2.98381200	    -1.10468900	     1.39717100
 H	     2.89534800	    -2.18100900	    -0.84999600
 H	     3.39304700	    -0.66086200	    -1.60055800
 H	     5.72839000	    -0.12767800	    -1.78136900
 H	     8.10058900	    -0.66467600	    -1.30804200
 H	     8.67199100	    -2.48129600	     0.29324500
 H	     6.84964400	    -3.75629600	     1.41028900
 H	     4.48135100	    -3.21340600	     0.93419100
 H	     4.29949800	     1.14564300	     0.04523800
 H	     3.68884300	     1.14498300	     1.72364600
 H	    -2.76768300	    -1.52559100	    -1.29191800
 H	    -3.48460700	    -0.38108500	     1.45087700
 H	    -2.94024300	    -2.03099600	     1.13070100
 H	    -4.37201100	    -3.46271600	    -0.51286600
 H	    -6.69550200	    -4.11631900	    -1.06609500
 H	    -8.59240300	    -2.63002700	    -0.44471700
 H	    -8.14175900	    -0.48879400	     0.73986500
 H	    -5.81452800	     0.15815000	     1.29220400
 H	    -3.47413600	     0.54102200	    -2.24062300
 H	    -4.24136500	     0.94780700	    -0.68074600
 Co	     0.04180000	    -1.78806700	     0.27223300
 H	    -0.07797800	    -2.44737900	     1.81081100
 H	     0.15577700	    -2.92886000	    -0.95490200

