90
CoH2L55-H.xyz
 C	    -5.00435400	     4.96061700	    -0.63973300
 C	    -5.14762300	     3.92324500	     0.49437400
 C	    -6.54851100	     3.29795900	     0.39806600
 C	    -5.03280000	     4.64069900	     1.85635300
 C	    -4.03423200	     2.87163500	     0.37273500
 C	    -2.69145100	     3.28063200	     0.43391800
 C	    -1.60589100	     2.39696600	     0.32619300
 C	    -0.25131500	     2.92006900	     0.38037400
 N	     0.83719800	     2.25535300	     0.18120200
 C	     1.97864300	     3.17321900	     0.31771200
 C	     2.78599800	     3.24573600	    -0.99141100
 C	     4.00959100	     4.11845300	    -0.84942300
 C	     4.05436100	     5.40523400	    -1.40165200
 C	     5.17414100	     6.22272200	    -1.22687800
 C	     6.26884800	     5.76286600	    -0.49313200
 C	     6.23738400	     4.47954100	     0.06072600
 C	     5.11791800	     3.66665300	    -0.11664800
 C	     1.31714200	     4.51117500	     0.72047300
 O	    -0.10875100	     4.23858200	     0.67057300
 C	    -1.87433900	     1.01414700	     0.16089400
 N	    -1.00679300	    -0.05087200	     0.05074000
 C	    -1.80201000	    -1.17073400	    -0.09440500
 C	    -1.44169400	    -2.52672700	    -0.26496300
 C	    -0.04983300	    -2.95708000	    -0.29303400
 N	     0.97775600	    -2.23951800	    -0.01104600
 C	     2.17713600	    -3.06625400	    -0.20734200
 C	     3.06434100	    -3.08970700	     1.04929500
 C	     4.32562100	    -3.89112100	     0.83405500
 C	     5.35888700	    -3.38142500	     0.03234500
 C	     6.51256400	    -4.12731400	    -0.20862600
 C	     6.65531800	    -5.40113900	     0.34972000
 C	     5.63644500	    -5.91866000	     1.15118400
 C	     4.48204100	    -5.16801800	     1.38925800
 C	     1.61181400	    -4.45541700	    -0.58950300
 O	     0.17870700	    -4.24891100	    -0.67017200
 C	    -2.46409700	    -3.48026200	    -0.41406100
 C	    -3.82894200	    -3.15691700	    -0.39191800
 C	    -4.93035400	    -4.21618600	    -0.55172000
 C	    -5.78420700	    -3.88503900	    -1.79441300
 C	    -4.35996500	    -5.63287700	    -0.72626800
 C	    -5.83317900	    -4.21149000	     0.70031800
 C	    -4.17995400	    -1.80934200	    -0.21775200
 C	    -3.19482200	    -0.83592600	    -0.07579700
 C	    -3.24187500	     0.59600000	     0.09757900
 C	    -4.29341300	     1.50557600	     0.19917900
 H	    -4.03861000	     5.47562500	    -0.59809800
 H	    -5.08513900	     4.47894900	    -1.62142700
 H	    -5.79223200	     5.72110000	    -0.56702100
 H	    -6.72494700	     2.56951700	     1.19787300
 H	    -7.30935300	     4.08182300	     0.48950000
 H	    -6.70432100	     2.79474100	    -0.56315500
 H	    -5.13600900	     3.92750500	     2.68275500
 H	    -5.81998600	     5.39840200	     1.95949400
 H	    -4.06704500	     5.14507800	     1.96833300
 H	    -2.46400000	     4.33190300	     0.56488900
 H	     2.63219200	     2.79849300	     1.11081800
 H	     2.13205500	     3.62573700	    -1.78528100
 H	     3.06817400	     2.22307400	    -1.26251700
 H	     3.20687700	     5.76599500	    -1.97963800
 H	     5.19029300	     7.21693100	    -1.66597600
 H	     7.14136500	     6.39612400	    -0.35649600
 H	     7.08745700	     4.11057000	     0.62878200
 H	     5.10016700	     2.66754600	     0.31254000
 H	     1.56309600	     4.82840300	     1.73686700
 H	     1.52729000	     5.32851400	     0.02634300
 H	     2.75540200	    -2.63240500	    -1.03092300
 H	     3.30140000	    -2.05165900	     1.30176900
 H	     2.48296600	    -3.50642000	     1.88038400
 H	     5.25449500	    -2.38944700	    -0.40102600
 H	     7.30277700	    -3.71336800	    -0.82974100
 H	     7.55471400	    -5.98218900	     0.16388300
 H	     5.73898900	    -6.90603200	     1.59418200
 H	     3.69439400	    -5.57387700	     2.01961900
 H	     1.80075000	    -5.21854400	     0.17203200
 H	     1.95758000	    -4.82199100	    -1.55853200
 H	    -2.15890100	    -4.50916500	    -0.54713000
 H	    -6.25607300	    -2.90003700	    -1.71071500
 H	    -6.58152500	    -4.62815200	    -1.92299300
 H	    -5.16843700	    -3.88540400	    -2.70159100
 H	    -3.73041700	    -5.71109400	    -1.61999300
 H	    -3.76326200	    -5.94118300	     0.13987700
 H	    -5.18200600	    -6.34994200	    -0.83542900
 H	    -5.25343400	    -4.44931100	     1.60006400
 H	    -6.30567600	    -3.23547400	     0.85493300
 H	    -6.63174500	    -4.95786500	     0.60197400
 H	    -5.22626400	    -1.51509500	    -0.19689300
 H	    -5.31329000	     1.13953600	     0.14354700
 Co	     1.07516600	     0.13297800	     0.01884100
 H	     2.10243500	     0.00130500	     1.42596700
 H	     1.83153600	    -0.07979600	    -1.53646600

