90
CoH2L85.xyz
 C	     2.93298300	    -4.23394100	    -0.49982700
 C	     1.60276000	    -4.06320300	    -0.10871100
 C	     0.81667400	    -3.07420600	    -0.70117400
 C	     1.34960700	    -2.22961900	    -1.68591600
 C	     0.52572000	    -1.15492500	    -2.35607300
 C	    -0.01550400	    -0.01347400	    -1.41948800
 C	    -0.55646600	     1.12035000	    -2.36422800
 C	    -1.34991200	     2.21478900	    -1.68942700
 C	    -2.69857300	     2.39504400	    -2.02209300
 C	    -3.45890000	     3.40212900	    -1.42492000
 C	    -2.87780300	     4.24693500	    -0.47831300
 C	    -1.53269300	     4.08044300	    -0.13991100
 C	    -0.77418900	     3.07794600	    -0.74562500
 C	     1.13870900	     0.52323000	    -0.60305700
 N	     1.31485100	     0.52860200	     0.66666300
 C	     2.61082800	     1.16772100	     0.96650400
 C	     3.60052900	     0.20854900	     1.58901000
 C	     4.65962000	     0.73122200	     2.34077700
 C	     5.64266100	    -0.11052400	     2.85872300
 C	     5.56864100	    -1.48866300	     2.63852800
 C	     4.50738800	    -2.01495600	     1.90083000
 C	     3.52799000	    -1.17063700	     1.37458500
 C	     3.02697300	     1.76258000	    -0.42829400
 C	     4.45466300	     1.59429600	    -0.85006900
 C	     5.32413000	     2.68404500	    -0.74320900
 C	     6.68106900	     2.53586800	    -1.03747800
 C	     7.17363100	     1.29725000	    -1.45115000
 C	     6.30466700	     0.20857500	    -1.56940200
 C	     4.95262400	     0.35420700	    -1.26681400
 O	     2.11159000	     1.07959500	    -1.35029700
 C	    -1.17341700	    -0.54223200	    -0.60222800
 N	    -1.32556900	    -0.60274500	     0.66992500
 C	    -2.64752100	    -1.19023000	     0.96220800
 C	    -3.58873600	    -0.19544600	     1.60510700
 C	    -4.68789900	    -0.68112300	     2.32367800
 C	    -5.62761000	     0.19783300	     2.85929500
 C	    -5.46940700	     1.57632600	     2.69133800
 C	    -4.36781000	     2.06508800	     1.98806000
 C	    -3.43126700	     1.18393600	     1.44365900
 C	    -3.08975400	    -1.73541000	    -0.44262900
 C	    -4.52040000	    -1.54604200	    -0.84445900
 C	    -5.02508800	    -0.28504300	    -1.18492300
 C	    -6.37756600	    -0.12804100	    -1.47897700
 C	    -7.24118700	    -1.22634700	    -1.42823400
 C	    -6.74272200	    -2.48513100	    -1.08980200
 C	    -5.38500700	    -2.64413700	    -0.80431600
 O	    -2.17950000	    -1.02947800	    -1.35402300
 C	     2.68451900	    -2.41253200	    -2.06985800
 C	     3.47244400	    -3.40554300	    -1.48483200
 H	     3.54186300	    -5.00726700	    -0.04041900
 H	     1.17276000	    -4.70183300	     0.65737800
 H	    -0.21759200	    -2.97187700	    -0.39037100
 H	    -0.34725300	    -1.58808500	    -2.85245700
 H	     1.12730500	    -0.66936500	    -3.12788200
 H	    -1.17996500	     0.63286300	    -3.11691500
 H	     0.31291300	     1.53414400	    -2.88204500
 H	    -3.15317500	     1.74190400	    -2.76156800
 H	    -4.50381300	     3.52213700	    -1.69718000
 H	    -3.46556700	     5.03084300	    -0.00947700
 H	    -1.06921300	     4.73498900	     0.59264600
 H	     0.27438100	     2.98440300	    -0.48365700
 H	     2.43273500	     1.99248400	     1.65961500
 H	     4.71791000	     1.80336800	     2.51079200
 H	     6.46214500	     0.30755800	     3.43679900
 H	     6.33143200	    -2.14736800	     3.04469600
 H	     4.43650400	    -3.08460100	     1.72899300
 H	     2.70975500	    -1.58738700	     0.80024900
 H	     2.74833500	     2.81887500	    -0.46236300
 H	     4.93860600	     3.64878600	    -0.42261800
 H	     7.34917400	     3.38780300	    -0.94813400
 H	     8.22870800	     1.17987500	    -1.68229000
 H	     6.68201700	    -0.75831500	    -1.89076000
 H	     4.28513600	    -0.49479500	    -1.34320400
 H	    -2.50759200	    -2.03628900	     1.63813400
 H	    -4.81300100	    -1.75334000	     2.45143700
 H	    -6.47945000	    -0.19167800	     3.40990600
 H	    -6.19863700	     2.26395500	     3.11097400
 H	    -4.23203000	     3.13416600	     1.85682500
 H	    -2.58162300	     1.57299800	     0.89529300
 H	    -2.81793100	    -2.79188600	    -0.51349700
 H	    -4.36286100	     0.57089400	    -1.20779000
 H	    -6.75961500	     0.85473600	    -1.74112600
 H	    -8.29662100	    -1.10044600	    -1.65320600
 H	    -7.40639000	    -3.34440100	    -1.05302700
 H	    -4.99463100	    -3.62485300	    -0.54371600
 H	     3.10627900	    -1.77305800	    -2.84048400
 H	     4.50588800	    -3.52749600	    -1.79702600
 Co	     0.03738200	    -0.13510100	     2.17053700
 H	    -0.29508600	     1.16615400	     3.18158400
 H	     0.41081300	    -1.54453000	     2.99864600

