57
CoH2L57.xyz
 C	    -3.91839800	    -0.95280700	    -2.27878800
 C	    -4.26412900	    -0.42272600	    -0.87839800
 C	    -4.45454600	    -1.60624700	     0.08284700
 C	    -5.56410700	     0.39569600	    -0.97644000
 C	    -3.13657800	     0.52471400	    -0.37938900
 C	    -3.35378300	     1.09817500	     1.03713800
 O	    -2.39705700	     0.37219500	     1.86602400
 C	    -1.55351400	    -0.24574600	     1.02246200
 C	    -0.43022400	    -0.96378800	     1.66106100
 C	    -0.69725300	    -1.63771100	     2.85971100
 C	     0.30652600	    -2.35704800	     3.50638000
 C	     1.59123400	    -2.38765000	     2.96698200
 C	     1.87292600	    -1.69456200	     1.78759100
 C	     0.87680800	    -0.97572200	     1.12012300
 P	     1.22658000	    -0.05636400	    -0.43400800
 C	     1.07122000	     1.68859400	     0.09670900
 C	     1.27043900	     2.09654300	     1.42431700
 C	     1.10649100	     3.43649400	     1.77693700
 C	     0.74135400	     4.37666700	     0.80993700
 C	     0.54113800	     3.97598600	    -0.51316200
 C	     0.70161300	     2.63657600	    -0.86972400
 C	     2.99786000	    -0.33854400	    -0.76112800
 C	     4.00923200	     0.48686000	    -0.24942100
 C	     5.34603200	     0.21438700	    -0.54111200
 C	     5.68099800	    -0.88207500	    -1.33971700
 C	     4.67653600	    -1.70564000	    -1.85399100
 C	     3.33789700	    -1.43251700	    -1.57264000
 N	    -1.83637400	    -0.17760000	    -0.23478000
 H	    -3.73774100	    -0.13189500	    -2.98134900
 H	    -4.75144900	    -1.55232200	    -2.66544900
 H	    -3.03014700	    -1.59405700	    -2.26893200
 H	    -3.54393900	    -2.21132500	     0.15262800
 H	    -4.72840100	    -1.27953800	     1.09302700
 H	    -5.25861300	    -2.25710000	    -0.27907700
 H	    -5.89797600	     0.76941400	    -0.00176000
 H	    -6.36904300	    -0.22869400	    -1.38050200
 H	    -5.43919300	     1.25627700	    -1.64522100
 H	    -3.01543100	     1.32838300	    -1.11043200
 H	    -4.34341300	     0.92628000	     1.45757900
 H	    -3.10190200	     2.15933600	     1.10714600
 H	    -1.69926700	    -1.60725300	     3.27341300
 H	     0.08263200	    -2.88769900	     4.42660500
 H	     2.38130200	    -2.94183200	     3.46519500
 H	     2.88091600	    -1.70847800	     1.38803100
 H	     1.54780700	     1.36926600	     2.18099800
 H	     1.26134500	     3.74533300	     2.80697100
 H	     0.60922700	     5.41842600	     1.08845600
 H	     0.25164000	     4.70330000	    -1.26636400
 H	     0.52886200	     2.32070500	    -1.89468500
 H	     3.75415500	     1.34095500	     0.36977000
 H	     6.12582500	     0.85930000	    -0.14571500
 H	     6.72298600	    -1.09014800	    -1.56609800
 H	     4.93352400	    -2.55443000	    -2.48121800
 H	     2.55397800	    -2.06564600	    -1.97987300
 Co	    -0.60389700	    -0.76821700	    -1.85973500
 H	    -0.81121100	     0.20921200	    -3.20194200
 H	    -0.50349100	    -2.41025400	    -2.13268800

