87
L102.xyz
 C	     0.58181400	     5.68161200	    -0.17988500
 C	     0.78030500	     4.39047800	    -0.97518100
 C	    -0.45151000	     3.44528900	    -0.96958600
 C	    -0.74772100	     3.01766200	     0.45505400
 N	    -1.85690600	     3.09572800	     1.07854500
 C	    -1.66118700	     2.34268000	     2.33650100
 C	    -2.20170600	     0.93192600	     2.19083600
 C	    -3.48094800	     0.55060700	     1.79827800
 C	    -3.76785200	    -0.80831600	     1.59537100
 C	    -5.12584200	    -1.22516200	     1.15582300
 C	    -6.22616800	    -0.86519400	     1.91501600
 C	    -7.53546300	    -1.25499500	     1.55202300
 C	    -7.74453600	    -2.01031100	     0.42156000
 C	    -6.65280500	    -2.38577900	    -0.40543300
 C	    -5.32204200	    -1.98275500	    -0.04815000
 C	    -4.25814900	    -2.32253500	    -0.92948700
 C	    -4.48829100	    -3.04697300	    -2.07824900
 C	    -5.79734400	    -3.47055700	    -2.41100800
 C	    -6.85399000	    -3.14021400	    -1.59318900
 C	    -2.75580900	    -1.76009800	     1.82134900
 C	    -1.47495400	    -1.37345900	     2.21827000
 C	    -1.19380800	    -0.01809600	     2.38791500
 C	     0.11823300	     0.63820100	     2.74973000
 C	    -0.12428500	     2.12096700	     2.44129600
 O	     0.31336600	     2.43930800	     1.08801700
 C	    -1.67414400	     4.15078900	    -1.61946800
 C	    -2.88634400	     3.29191700	    -1.98804900
 C	    -0.08942500	     2.15621500	    -1.68678200
 N	     0.96753300	     1.92608800	    -2.36313000
 C	     0.94986300	     0.47445800	    -2.65086400
 C	    -0.48614100	     0.00475900	    -2.27872600
 C	    -0.36225000	    -1.23431800	    -1.38450400
 C	     1.07405600	    -1.19240100	    -0.91829100
 C	     1.82153700	    -0.26557200	    -1.65305300
 C	     3.16640500	    -0.04624300	    -1.37459100
 C	     3.79048300	    -0.76714100	    -0.34354000
 C	     5.20737400	    -0.48311800	     0.00634600
 C	     6.19487900	    -1.52207800	     0.09659500
 C	     5.92186700	    -2.88158800	    -0.22193700
 C	     6.89877000	    -3.84790900	    -0.12074100
 C	     8.20637900	    -3.50764700	     0.30064900
 C	     8.51354300	    -2.19829100	     0.59227700
 C	     7.53190100	    -1.17547500	     0.49024400
 C	     7.85649800	     0.18110700	     0.75568700
 C	     6.90228500	     1.16362200	     0.62888500
 C	     5.58133400	     0.82720700	     0.25726900
 C	     3.03181400	    -1.70049700	     0.38877000
 C	     1.68205300	    -1.91730100	     0.10631600
 O	    -0.97414200	     1.13623600	    -1.50298900
 H	     0.31141900	     5.47688300	     0.86307900
 H	     1.51177200	     6.26129600	    -0.17248600
 H	    -0.19965300	     6.31714500	    -0.60905000
 H	     1.63675800	     3.84029500	    -0.57711600
 H	     1.01515400	     4.62250400	    -2.01910000
 H	    -2.09225900	     2.88521900	     3.18261100
 H	    -4.24502200	     1.29817600	     1.60580700
 H	    -6.07365100	    -0.28996200	     2.82382800
 H	    -8.37261500	    -0.96298600	     2.17988200
 H	    -8.74629500	    -2.32439500	     0.13963100
 H	    -3.25351500	    -1.99124800	    -0.69540200
 H	    -3.65970700	    -3.28965500	    -2.73811800
 H	    -5.96567700	    -4.04499600	    -3.31770500
 H	    -7.86611600	    -3.44544700	    -1.84707500
 H	    -2.97978200	    -2.81339800	     1.68060300
 H	    -0.70496600	    -2.12338200	     2.37813900
 H	     0.96842800	     0.24512300	     2.18302500
 H	     0.35029100	     0.51212300	     3.81533000
 H	     0.39397200	     2.80248300	     3.11953300
 H	    -1.30369800	     4.65485600	    -2.52045900
 H	    -1.99485300	     4.93464600	    -0.92703700
 H	    -3.25570800	     2.73046100	    -1.12701300
 H	    -2.65780600	     2.58014100	    -2.78681300
 H	    -3.69260600	     3.94468900	    -2.34423800
 H	     1.22636300	     0.28417500	    -3.69167500
 H	    -1.16354200	    -0.12756500	    -3.12529800
 H	    -1.08090800	    -1.20303100	    -0.56060100
 H	    -0.57015100	    -2.14141500	    -1.96712600
 H	     3.73363000	     0.68733600	    -1.94009800
 H	     4.92967600	    -3.15574100	    -0.56149800
 H	     6.66622100	    -4.87885500	    -0.37297700
 H	     8.96657200	    -4.27970900	     0.38092500
 H	     9.51896700	    -1.92133100	     0.89966200
 H	     8.87243700	     0.42672100	     1.05422700
 H	     7.15243000	     2.20200400	     0.82751600
 H	     4.83086500	     1.60986400	     0.19270600
 H	     3.50187700	    -2.24149800	     1.20437900
 H	     1.11145900	    -2.63144000	     0.69379800

