107
L104.xyz
 C	    -3.48237900	    -5.58104700	     2.93382000
 C	    -3.92980600	    -5.17628100	     1.54936000
 C	    -4.91982000	    -5.95978800	     0.89655600
 C	    -5.37452900	    -5.64605600	    -0.36085100
 C	    -4.86267800	    -4.51734400	    -1.05153900
 C	    -3.86431900	    -3.70930800	    -0.41496900
 C	    -3.35084900	    -2.59127000	    -1.13344400
 C	    -3.80769000	    -2.28607900	    -2.39705200
 C	    -4.80074500	    -3.08178000	    -3.01711100
 C	    -5.31343200	    -4.17451500	    -2.35484900
 C	    -3.40831000	    -4.06244100	     0.90141600
 C	    -2.35164900	    -3.22357300	     1.53501300
 C	    -1.05569000	    -3.73386900	     1.72612000
 C	    -0.01631500	    -2.91859100	     2.18011300
 C	    -2.61044600	    -1.88429400	     1.86057500
 C	    -1.57078400	    -1.07369200	     2.30220400
 C	    -0.27086500	    -1.57185700	     2.43425400
 C	     0.70371800	    -0.47428900	     2.79421900
 C	    -0.10417800	     0.81176400	     2.57331500
 O	     0.10792100	     1.33522000	     1.22496900
 C	    -1.60997400	     0.42484900	     2.52583400
 N	    -2.14245700	     1.09290100	     1.32086300
 C	    -1.12706400	     1.49386900	     0.66493500
 C	    -1.10513800	     2.03809000	    -0.75065100
 C	    -2.53757100	     2.08482600	    -1.37622500
 C	    -3.41857400	     3.27781700	    -1.07526500
 C	    -3.92409700	     3.53715200	     0.20747500
 C	    -4.73530700	     4.64643400	     0.43983000
 C	    -5.07586400	     5.50785500	    -0.60737100
 C	    -4.59977700	     5.24608800	    -1.89212700
 C	    -3.77716700	     4.14050300	    -2.11870900
 C	    -0.31255900	     3.37705500	    -0.84460200
 C	    -0.77657000	     4.51997200	     0.03340600
 C	    -0.65143900	     4.47453200	     1.42966000
 C	    -1.09218100	     5.53386200	     2.22396800
 C	    -1.65086900	     6.66984700	     1.63546400
 C	    -1.74533200	     6.74361800	     0.24427100
 C	    -1.30550800	     5.68090700	    -0.54424100
 C	    -0.33542600	     0.98263000	    -1.53471800
 N	     0.75281000	     1.14739400	    -2.17534600
 C	     1.16508800	    -0.19984200	    -2.62267800
 C	    -0.07001700	    -1.11197500	    -2.36583800
 C	     0.41476100	    -2.35579800	    -1.60914700
 C	     1.78152200	    -1.95794800	    -1.10097900
 C	     2.21507500	    -0.76401500	    -1.68656300
 C	     3.42814200	    -0.18534200	    -1.32831000
 C	     4.23324500	    -0.80954900	    -0.36551700
 C	     5.50370800	    -0.16568300	     0.08041700
 C	     6.76082000	    -0.67011300	    -0.38197600
 C	     6.85755800	    -1.77143500	    -1.27866400
 C	     8.08288300	    -2.23389100	    -1.70543100
 C	     9.27952300	    -1.61992800	    -1.26100400
 C	     9.22225800	    -0.54796700	    -0.39956100
 C	     7.97422900	    -0.04540000	     0.05794700
 C	     7.89271600	     1.06321600	     0.93801100
 C	     6.67117900	     1.52924300	     1.36289900
 C	     5.45639100	     0.92419700	     0.94427000
 C	     4.14387500	     1.45843200	     1.46836800
 C	     3.80833700	    -2.02483600	     0.19834000
 C	     2.58994400	    -2.60380100	    -0.16613600
 O	    -0.89163600	    -0.26255900	    -1.50633300
 H	    -4.27095900	    -6.14375200	     3.44454600
 H	    -3.22444100	    -4.71390100	     3.54855900
 H	    -2.59500400	    -6.22678500	     2.89781600
 H	    -5.32575600	    -6.82253400	     1.41902100
 H	    -6.13541900	    -6.25588800	    -0.84165100
 H	    -2.59327000	    -1.96442400	    -0.68133300
 H	    -3.40129100	    -1.42353500	    -2.91813500
 H	    -5.15347600	    -2.82933500	    -4.01329700
 H	    -6.07373700	    -4.79725600	    -2.82010400
 H	    -0.85522500	    -4.77161500	     1.47519100
 H	     0.98555300	    -3.32249200	     2.29032300
 H	    -3.60278300	    -1.47118100	     1.70611100
 H	     1.02357000	    -0.53643900	     3.84233800
 H	     1.60685000	    -0.49062700	     2.17603400
 H	     0.14380500	     1.61260300	     3.27309500
 H	    -2.17595300	     0.72178400	     3.41294700
 H	    -2.39938300	     2.03922200	    -2.46147800
 H	    -3.04549500	     1.16227200	    -1.08264300
 H	    -3.66491600	     2.86851000	     1.02024100
 H	    -5.10465600	     4.83953300	     1.44365000
 H	    -5.70910500	     6.37138500	    -0.42218700
 H	    -4.86211100	     5.90269100	    -2.71766700
 H	    -3.40056100	     3.94716100	    -3.12061300
 H	    -0.33916900	     3.68934400	    -1.89243800
 H	     0.73174800	     3.14484700	    -0.61915900
 H	    -0.19208000	     3.61271600	     1.90003000
 H	    -0.99231300	     5.47248200	     3.30463500
 H	    -1.99934300	     7.49292500	     2.25348000
 H	    -2.16839900	     7.62554600	    -0.22896000
 H	    -1.39589000	     5.74024800	    -1.62433000
 H	     1.48828100	    -0.17332900	    -3.66714000
 H	    -0.66632400	    -1.34324000	    -3.25023400
 H	    -0.27587500	    -2.63808400	    -0.80948700
 H	     0.47318400	    -3.20742900	    -2.29918300
 H	     3.74205700	     0.75684100	    -1.76844100
 H	     5.94719200	    -2.24597900	    -1.62877000
 H	     8.13382500	    -3.07554400	    -2.39088500
 H	    10.23911800	    -1.99563300	    -1.60512900
 H	    10.13342500	    -0.06490400	    -0.05501600
 H	     8.81174100	     1.53854800	     1.27180700
 H	     6.62218200	     2.37824400	     2.03997300
 H	     3.49330200	     1.81792600	     0.66358800
 H	     4.31102900	     2.28662900	     2.16399200
 H	     3.58276700	     0.67904200	     1.99746200
 H	     4.43709500	    -2.51063300	     0.93944100
 H	     2.27310900	    -3.53828000	     0.28708900

