62
L106.xyz
 N	    -0.39323900	    -4.28044400	     1.36379900
 C	    -0.25257000	    -3.39971800	     0.61250700
 C	    -0.07704600	    -2.33218400	    -0.30001100
 C	     1.27733000	    -1.91199900	    -0.60563300
 N	     2.34476700	    -2.28710300	    -0.00707700
 C	     3.47301600	    -1.62256900	    -0.67344500
 C	     4.48679900	    -1.04947100	     0.28789200
 C	     4.09510500	    -0.54680400	     1.53323300
 C	     5.02782500	     0.05819900	     2.37534900
 C	     6.36406700	     0.16776900	     1.98128800
 C	     6.76334900	    -0.33996700	     0.74335300
 C	     5.82795300	    -0.94824900	    -0.09581700
 C	     2.78448200	    -0.54208900	    -1.60015800
 C	     2.83514600	     0.88293900	    -1.10967800
 C	     1.84108600	     1.40877200	    -0.27818700
 C	     1.94046700	     2.71394800	     0.20606200
 C	     3.04296000	     3.50293600	    -0.12610500
 C	     4.03981300	     2.98279600	    -0.95602700
 C	     3.93188300	     1.68336200	    -1.45009900
 O	     1.40918500	    -1.01036200	    -1.63616700
 C	    -1.20177000	    -1.66059300	    -0.76564300
 N	    -1.27118700	    -0.62811400	    -1.62569600
 C	    -2.57496500	     0.02957900	    -1.53617600
 C	    -2.57103100	     1.24038900	    -0.62670900
 C	    -1.79693500	     1.27751900	     0.53979300
 C	    -1.85279400	     2.38283900	     1.38938400
 C	    -2.68543800	     3.46178900	     1.08297000
 C	    -3.46230700	     3.42883900	    -0.07674500
 C	    -3.40277300	     2.32376100	    -0.92680500
 C	    -3.41475600	    -1.18589200	    -1.02971800
 C	    -4.57027700	    -0.86336500	    -0.13093500
 C	    -5.81391200	    -0.60000600	    -0.71435400
 C	    -6.89302700	    -0.20591600	     0.07733200
 C	    -6.73684600	    -0.08511700	     1.45973100
 C	    -5.49903000	    -0.36055400	     2.04535000
 C	    -4.41627800	    -0.74380400	     1.25405300
 O	    -2.42098700	    -2.00461000	    -0.33208800
 H	     3.97914900	    -2.35170800	    -1.31863700
 H	     3.05707700	    -0.63527000	     1.83697000
 H	     4.71147200	     0.44532500	     3.34029600
 H	     7.08988800	     0.64022200	     2.63759500
 H	     7.80211600	    -0.26708400	     0.43248200
 H	     6.13943600	    -1.34407300	    -1.05995100
 H	     3.17349400	    -0.60746100	    -2.61725900
 H	     0.98244000	     0.80510100	    -0.00960300
 H	     1.15240600	     3.11098800	     0.83999100
 H	     3.12341900	     4.51776800	     0.25336200
 H	     4.89887000	     3.59160100	    -1.22412500
 H	     4.70759100	     1.28280800	    -2.09729900
 H	    -0.42470300	    -0.13873300	    -1.89360000
 H	    -2.92712100	     0.31265300	    -2.53013300
 H	    -1.15060000	     0.44492600	     0.79784700
 H	    -1.24974500	     2.39663800	     2.29281600
 H	    -2.72799900	     4.32254900	     1.74425300
 H	    -4.11107800	     4.26460500	    -0.32313100
 H	    -4.00791300	     2.29986800	    -1.82942800
 H	    -3.74532500	    -1.76645600	    -1.89598400
 H	    -5.93593400	    -0.70142500	    -1.78990100
 H	    -7.85488700	    -0.00168000	    -0.38443600
 H	    -7.57733900	     0.21626300	     2.07858300
 H	    -5.37356800	    -0.27467500	     3.12094900
 H	    -3.45627800	    -0.95619300	     1.71090600

