73
L109.xyz
 C	    -1.66582000	     0.57440900	     0.53606500
 C	    -0.16403800	     0.69042600	     0.66654400
 C	     0.26557000	     0.06978800	     2.03681500
 C	     1.75337600	    -0.24624800	     2.22847200
 C	     2.72149900	     0.93096600	     2.43984600
 C	     3.99068100	     0.25649100	     2.98829300
 C	     3.48420200	    -0.93237500	     3.85010300
 C	     1.98296300	    -1.09173600	     3.50060300
 C	     0.24975900	     2.18284800	     0.55246400
 C	    -0.37052200	     2.97979000	    -0.60455100
 C	    -1.71634000	     3.66968400	    -0.31458400
 C	    -1.86781300	     4.68883000	    -1.46045600
 C	    -0.41628000	     5.09144000	    -1.85559200
 C	     0.51067800	     4.16851500	    -1.03120300
 C	     0.46377000	    -0.12992600	    -0.43789800
 N	     1.24984600	     0.29069700	    -1.34990500
 C	     1.71754900	    -0.89238000	    -2.09694300
 C	     3.20374600	    -1.14549800	    -1.89756500
 C	     3.82808700	    -2.15551700	    -2.64286300
 C	     5.18061400	    -2.44222500	    -2.46080300
 C	     5.93220200	    -1.71573300	    -1.53225000
 C	     5.31967100	    -0.70269800	    -0.79354500
 C	     3.96279200	    -0.41994300	    -0.97445100
 C	     0.82004900	    -2.04205300	    -1.55737400
 O	     0.20970200	    -1.46666200	    -0.37512800
 N	    -2.30015500	     0.21263200	    -0.51002200
 C	    -3.73374000	     0.20234700	    -0.16738700
 C	    -4.31722600	    -1.19755900	    -0.23486100
 C	    -5.70177300	    -1.36440600	    -0.36487500
 C	    -6.26665100	    -2.64029900	    -0.37019600
 C	    -5.44930100	    -3.76748100	    -0.25101600
 C	    -4.06752900	    -3.60769500	    -0.12799400
 C	    -3.50315900	    -2.33010200	    -0.11888100
 C	    -3.77648900	     0.81464500	     1.26587500
 O	    -2.37679300	     0.91935600	     1.64131600
 H	    -0.29179900	    -0.86496400	     2.16305800
 H	    -0.07243100	     0.74493200	     2.83009900
 H	     2.11344300	    -0.82800600	     1.36984600
 H	     2.29829400	     1.62268600	     3.18196700
 H	     2.92169400	     1.50563200	     1.53146500
 H	     4.58789600	    -0.12102300	     2.14967000
 H	     4.62647600	     0.94860900	     3.55075800
 H	     4.04616900	    -1.84460800	     3.62282800
 H	     3.61745700	    -0.73725300	     4.91959800
 H	     1.68463200	    -2.13599400	     3.35666500
 H	     1.36063100	    -0.68910300	     4.31105500
 H	     0.00642100	     2.67332600	     1.50228900
 H	     1.33564600	     2.20357800	     0.45089900
 H	    -0.49844500	     2.31800500	    -1.46969600
 H	    -2.56296200	     2.98020800	    -0.26107300
 H	    -1.65074600	     4.18720800	     0.65295300
 H	    -2.47918300	     5.55022300	    -1.17035800
 H	    -2.37036400	     4.21401300	    -2.31144700
 H	    -0.21450600	     6.14806400	    -1.64948700
 H	    -0.25716000	     4.94303400	    -2.92932100
 H	     1.39869600	     3.84219200	    -1.58373800
 H	     0.86276000	     4.69062800	    -0.13042400
 H	     1.52865600	    -0.74131400	    -3.16482700
 H	     3.24852300	    -2.72091700	    -3.36965400
 H	     5.64936600	    -3.22944600	    -3.04530800
 H	     6.98669100	    -1.93624800	    -1.39060900
 H	     5.89660600	    -0.12645400	    -0.07507000
 H	     3.48972500	     0.37189800	    -0.40565200
 H	     1.36927700	    -2.93574000	    -1.25780100
 H	     0.01860900	    -2.30918500	    -2.25210700
 H	    -4.27785000	     0.84559300	    -0.86679700
 H	    -6.33975600	    -0.48880200	    -0.46355100
 H	    -7.34247500	    -2.75490600	    -0.47330000
 H	    -5.88645000	    -4.76227600	    -0.25900800
 H	    -3.42482900	    -4.48001400	    -0.04142200
 H	    -2.42767500	    -2.20632100	    -0.03826600
 H	    -4.20771500	     1.81870900	     1.28671400
 H	    -4.27758300	     0.18135200	     2.00028600

