67
L11.xyz
 C	    -8.50531700	     3.77792900	     0.88666400
 C	    -8.07822400	     2.86549800	     1.85417500
 C	    -7.31271400	     1.75916200	     1.48759100
 C	    -6.95485500	     1.54169700	     0.14587400
 C	    -6.13867100	     0.36542000	    -0.24244400
 C	    -6.36103800	    -0.29060600	    -1.46885300
 C	    -5.59806600	    -1.39342600	    -1.85305600
 C	    -4.59525300	    -1.85993600	    -1.00354700
 C	    -4.37074300	    -1.21971200	     0.21982600
 C	    -5.12451400	    -0.11583200	     0.60360500
 C	    -3.20821100	    -1.84767400	     0.96180000
 N	    -2.10478800	    -0.88747200	     1.16355600
 C	    -1.21814600	    -1.18357300	     0.29307600
 C	     0.00044500	    -0.39758600	    -0.01234100
 C	     1.22454900	    -1.16102900	    -0.35122600
 N	     2.11033600	    -0.81919700	    -1.20569200
 C	     3.21996300	    -1.78027700	    -1.04630200
 C	     4.37446800	    -1.17851100	    -0.27142900
 C	     5.12455400	    -0.05571900	    -0.60376500
 C	     6.14056600	     0.38587000	     0.26110900
 C	     6.94725000	     1.58590300	    -0.07025500
 C	     6.36257200	     2.69023400	    -0.71377500
 C	     7.11938100	     3.81871300	    -1.02717800
 C	     8.47703400	     3.86855100	    -0.70235100
 C	     9.07079100	     2.77833500	    -0.06207500
 C	     8.31429000	     1.64910800	     0.24971200
 C	     6.37120300	    -0.33021000	     1.45187100
 C	     5.61470300	    -1.45484400	     1.78234000
 C	     4.60768400	    -1.87989300	     0.91611700
 C	     3.67777800	    -3.06416800	     1.05240300
 C	     2.66732400	    -2.88211200	    -0.09120200
 O	     1.43113700	    -2.28034200	     0.39424800
 C	     0.20223100	     0.91752200	     0.73191900
 C	    -0.21078000	     0.94616100	    -0.70080700
 O	    -1.41851900	    -2.26860500	    -0.50303600
 C	    -2.65037700	    -2.89976200	    -0.04517600
 C	    -3.66068400	    -3.03260600	    -1.19552500
 C	    -7.38983800	     2.46892200	    -0.81676100
 C	    -8.15757300	     3.57390100	    -0.45068900
 H	    -9.10254700	     4.63951500	     1.17195700
 H	    -8.34852900	     3.00991200	     2.89679400
 H	    -7.00699700	     1.04390800	     2.24549000
 H	    -7.15648200	     0.05886400	    -2.12028200
 H	    -5.79120700	    -1.88270100	    -2.80440100
 H	    -4.90684500	     0.39370400	     1.53770100
 H	    -3.50814600	    -2.27716100	     1.92252800
 H	     3.52588300	    -2.16201300	    -2.02511100
 H	     4.93284300	     0.47207400	    -1.53338700
 H	     5.30237200	     2.67237200	    -0.94874000
 H	     6.64491100	     4.66409000	    -1.51824000
 H	     9.06637000	     4.74820900	    -0.94587300
 H	    10.12806800	     2.80260600	     0.18803100
 H	     8.79189700	     0.79751800	     0.72543200
 H	     7.13595900	     0.01731700	     2.14015400
 H	     5.80414200	    -1.98205700	     2.71395500
 H	     3.17291200	    -3.10956500	     2.02326800
 H	     4.21939300	    -4.01047100	     0.92762800
 H	     2.39696300	    -3.81807200	    -0.58407400
 H	     1.22979100	     1.16872600	     0.97539200
 H	    -0.53677100	     1.14502800	     1.49273600
 H	    -1.24016500	     1.20044900	    -0.93306600
 H	     0.52610000	     1.21020000	    -1.45186500
 H	    -2.37405000	    -3.85655100	     0.40228200
 H	    -4.19876200	    -3.98568900	    -1.11441100
 H	    -3.15613200	    -3.03115500	    -2.16758000
 H	    -7.10436600	     2.33494000	    -1.85598100
 H	    -8.47706300	     4.28155900	    -1.21101800

