49
L116.xyz
 O	    -3.46240200	    -1.06360500	     1.13476600
 C	    -3.53869300	    -0.67259400	    -0.01432600
 O	    -4.65354100	    -0.23817200	    -0.60925900
 C	    -5.87758100	    -0.19561100	     0.19543500
 C	    -6.73712600	     0.89847200	    -0.41250000
 C	    -6.53302800	    -1.56855000	     0.17496100
 C	    -2.33626700	    -0.55089600	    -0.94925800
 C	    -1.20905400	    -1.54487300	    -0.60274600
 O	    -0.19458500	    -0.71031600	     0.01522700
 N	    -1.74259200	     0.78372700	    -0.70071100
 C	    -0.60748000	     0.56861700	    -0.15172000
 C	     0.29262600	     1.60908900	     0.40634100
 C	    -0.30786300	     2.96273800	     0.75836300
 C	     0.02653900	     2.01214300	     1.85766700
 C	     1.68507100	     1.57396400	    -0.08823600
 N	     2.06920200	     0.99707700	    -1.16301500
 C	     3.53825600	     1.15237500	    -1.21181500
 C	     4.13688900	    -0.23937900	    -1.01518200
 O	     3.90847300	    -0.67118700	     0.23235300
 C	     4.18029200	    -2.07430400	     0.53582500
 C	     4.40643000	    -2.14063900	     2.03553000
 C	     2.99390900	    -2.90154700	     0.06012200
 O	     4.69819800	    -0.87328400	    -1.88563000
 C	     3.85336900	     2.15184200	    -0.07379900
 O	     2.60173800	     2.23930400	     0.65942200
 H	    -5.58409400	     0.06545900	     1.21531000
 H	    -7.66336600	     1.00247400	     0.16292900
 H	    -6.21223200	     1.85930800	    -0.39937200
 H	    -7.00019700	     0.65821100	    -1.44889300
 H	    -7.45677400	    -1.54781400	     0.76393900
 H	    -5.86951500	    -2.32427000	     0.60556300
 H	    -6.78439000	    -1.86042800	    -0.85110000
 H	    -2.67061000	    -0.62572600	    -1.98608800
 H	    -0.77217200	    -2.01156200	    -1.48883700
 H	    -1.50588500	    -2.30580800	     0.11960700
 H	    -1.34793400	     3.10007800	     0.48340000
 H	     0.33547200	     3.82368500	     0.60909300
 H	     0.89809800	     2.20542900	     2.47321900
 H	    -0.78657400	     1.48646200	     2.34899700
 H	     3.85978600	     1.51354500	    -2.19031800
 H	     5.08616800	    -2.35867500	    -0.00572700
 H	     4.63685200	    -3.17001100	     2.33035900
 H	     3.51070900	    -1.81784100	     2.57819600
 H	     5.24419600	    -1.50095800	     2.33282000
 H	     3.14056100	    -3.95498800	     0.32333800
 H	     2.88112300	    -2.83091200	    -1.02604400
 H	     2.07040800	    -2.54469000	     0.52881100
 H	     4.09589300	     3.14765200	    -0.45409400
 H	     4.62743000	     1.81874900	     0.61795400

