25
L119.xyz
 C	     2.12807600	     0.08536300	    -0.00000900
 C	     0.66771100	     0.33123700	     0.00000000
 C	     0.20779600	     1.67717100	     0.00000500
 C	    -1.14378800	     1.91043700	     0.00000700
 C	    -2.04329600	     0.81356100	     0.00000300
 C	    -3.45311100	     0.96308700	     0.00000500
 C	    -4.27056800	    -0.14592000	     0.00000100
 C	    -3.71250200	    -1.44926500	    -0.00000500
 C	    -2.34681400	    -1.62609100	    -0.00000700
 C	    -1.47828300	    -0.50247100	    -0.00000400
 N	    -0.13292200	    -0.72078500	    -0.00000400
 N	     3.01340400	     1.00971900	    -0.00001600
 C	     4.32259200	     0.33829700	    -0.00001000
 C	     3.98855900	    -1.17264500	     0.00001400
 O	     2.53408700	    -1.20779900	     0.00001400
 H	     0.93146600	     2.48333300	     0.00000700
 H	    -1.53662800	     2.92377400	     0.00000900
 H	    -3.87344100	     1.96546300	     0.00001000
 H	    -5.35005600	    -0.02616300	     0.00000300
 H	    -4.37205800	    -2.31232500	    -0.00000800
 H	    -1.89901200	    -2.61522400	    -0.00001000
 H	     4.89482400	     0.64151100	    -0.88402100
 H	     4.89482900	     0.64153600	     0.88399000
 H	     4.33788700	    -1.69931900	    -0.89189600
 H	     4.33788800	    -1.69929000	     0.89194000

