85
L12.xyz
 C	     8.82180700	     4.92178800	    -0.77812000
 C	     8.08448400	     3.63395900	    -0.50452900
 C	     6.75115600	     3.64545300	    -0.08328100
 C	     6.05845300	     2.46440200	     0.20327400
 C	     4.61964400	     2.52686200	     0.66041600
 C	     6.72300800	     1.22868800	     0.06525400
 C	     5.99465400	    -0.03976600	     0.36540600
 C	     6.22765700	    -0.73232600	     1.56607200
 C	     5.52416800	    -1.89772200	     1.87957500
 C	     4.57110600	    -2.37913000	     0.98266300
 C	     4.34244600	    -1.70113800	    -0.21930400
 C	     5.04282900	    -0.54058500	    -0.53428200
 C	     3.22134700	    -2.34495700	    -1.00916000
 N	     2.09907400	    -1.40400100	    -1.19978300
 C	     1.21963700	    -1.73051700	    -0.33275400
 C	     0.00034700	    -0.95839400	     0.00142400
 C	    -1.21931300	    -1.72953200	     0.33653700
 N	    -2.09918700	    -1.40098900	     1.20236300
 C	    -3.22154400	    -2.34210900	     1.01314700
 C	    -4.34234000	    -1.69972000	     0.22169100
 C	    -5.04310800	    -0.53878000	     0.53445700
 C	    -5.99488400	    -0.03981400	    -0.36630700
 C	    -6.72364000	     1.22885000	    -0.06801900
 C	    -6.06007200	     2.46476600	    -0.21088900
 C	    -4.62254500	     2.52652800	    -0.67211400
 C	    -6.75489600	     3.64645300	     0.06702300
 C	    -8.08810300	     3.63540900	     0.48926500
 C	    -8.80740400	     4.92088000	     0.81672500
 C	    -8.72706800	     2.39923600	     0.62417400
 C	    -8.06783100	     1.19534700	     0.35260700
 C	    -8.79558300	    -0.11753300	     0.51983900
 C	    -6.22708400	    -0.73432400	    -1.56602200
 C	    -5.52321100	    -1.90006100	    -1.87730800
 C	    -4.57047000	    -2.37982800	    -0.97916900
 C	    -3.68307800	    -3.59891700	    -1.09810300
 C	    -2.67379600	    -3.43692600	     0.04850300
 O	    -1.43601600	    -2.83163100	    -0.43136000
 C	    -0.21510200	     0.37158800	    -0.71308200
 C	     0.21638100	     0.37238200	     0.71428100
 O	     1.43655300	    -2.83105900	     0.43733200
 C	     2.67378900	    -3.43776700	    -0.04216900
 C	     3.68372600	    -3.59798800	     1.10410200
 C	     8.06539500	     1.19429900	    -0.36158600
 C	     8.79032800	    -0.11942100	    -0.53426000
 C	     8.72238900	     2.39727600	    -0.64169100
 H	     8.14162100	     5.70646300	    -1.12706400
 H	     9.60218000	     4.78382200	    -1.53450700
 H	     9.31274600	     5.29798000	     0.13000800
 H	     6.23604000	     4.59757700	     0.02673900
 H	     3.93825400	     2.08741900	    -0.07816400
 H	     4.47060100	     1.97058000	     1.59343900
 H	     4.30950200	     3.56317300	     0.82729700
 H	     6.95923400	    -0.33951100	     2.26695400
 H	     5.71061300	    -2.41084300	     2.81973100
 H	     4.84225300	    -0.01002600	    -1.46102900
 H	     3.55228900	    -2.73734400	    -1.97536100
 H	    -3.55287900	    -2.73256700	     1.97999900
 H	    -4.84297600	    -0.00659900	     1.46037500
 H	    -3.93946600	     2.08848300	     0.06572700
 H	    -4.31286600	     3.56257000	    -0.84152100
 H	    -4.47553600	     1.96852700	    -1.60445000
 H	    -6.24244700	     4.59886000	    -0.05270100
 H	    -9.88815300	     4.82471200	     0.66615100
 H	    -8.64909800	     5.20738300	     1.86555200
 H	    -8.44771800	     5.75005200	     0.19748500
 H	    -9.76449100	     2.36943900	     0.95094300
 H	    -8.94607200	    -0.62435600	    -0.44111600
 H	    -9.77947800	     0.03726800	     0.97379000
 H	    -8.23110500	    -0.81051800	     1.15472900
 H	    -6.95841600	    -0.34281900	    -2.26788200
 H	    -5.70914000	    -2.41476200	    -2.81670200
 H	    -3.17655300	    -3.67562500	    -2.06594800
 H	    -4.25728400	    -4.52426500	    -0.96104200
 H	    -2.40607400	    -4.37941400	     0.53053600
 H	    -1.24679900	     0.62393200	    -0.93768700
 H	     0.51298300	     0.61704900	    -1.47882200
 H	    -0.51156600	     0.61910500	     1.47974800
 H	     1.24819900	     0.62456300	     0.93852200
 H	     2.40539000	    -4.38104800	    -0.52227600
 H	     3.17778000	    -3.67311300	     2.07237200
 H	     4.25778100	    -4.52359700	     0.96816400
 H	     8.22407600	    -0.80925100	    -1.17107400
 H	     9.77423000	     0.03499000	    -0.98832100
 H	     8.94034200	    -0.62972200	     0.42490400
 H	     9.75640700	     2.36641400	    -0.97905900

