33
L124.xyz
 C	    -0.45083900	    -0.32574600	    -0.32002500
 C	    -1.57074300	    -0.53599400	    -1.29058600
 C	    -2.92788700	    -0.28776200	    -0.65528500
 C	    -3.29485400	    -0.95446800	     0.52041400
 C	    -4.55090400	    -0.71150600	     1.06833600
 C	    -5.40205600	     0.18822000	     0.42453600
 C	    -4.94944100	     0.80161700	    -0.74169100
 N	    -3.74019600	     0.57823700	    -1.27857500
 N	     0.29774000	    -1.23577100	     0.17319800
 C	     1.26018600	    -0.54202000	     1.05543000
 C	     2.63862200	    -0.45852700	     0.43425200
 C	     3.47332100	    -1.51120400	     0.06251500
 C	     4.70025400	    -1.22072400	    -0.53982000
 C	     5.07950300	     0.10790200	    -0.76674800
 C	     4.23831500	     1.16043900	    -0.39453300
 C	     3.01315800	     0.87049500	     0.20686200
 C	     1.96162400	     1.83659100	     0.70626800
 C	     0.77505600	     0.94020800	     1.09789400
 O	    -0.26607700	     0.96174200	     0.07849900
 H	    -1.50408800	    -1.56397100	    -1.65985100
 H	    -1.45754400	     0.14681600	    -2.13761800
 H	    -2.60086500	    -1.64628300	     0.98827000
 H	    -4.86101700	    -1.21500900	     1.97965900
 H	    -6.39052600	     0.41026900	     0.81410800
 H	    -5.58348800	     1.50898800	    -1.27322100
 H	     1.27323600	    -1.02596800	     2.03704600
 H	     3.16913800	    -2.54102200	     0.22980500
 H	     5.36211600	    -2.02962100	    -0.83704100
 H	     6.03483600	     0.32262000	    -1.23819500
 H	     4.53543600	     2.19053000	    -0.57516500
 H	     1.66413400	     2.57681500	    -0.04423800
 H	     2.31944100	     2.39349200	     1.58130400
 H	     0.30510600	     1.23601400	     2.03789000

