30
L126.xyz
 C	     3.64728900	    -1.01546700	     1.27402800
 C	     4.07472800	    -0.50494900	    -0.10294500
 C	     3.00243100	     0.32447100	    -0.82826700
 C	     2.55974100	     1.60353100	    -0.07160900
 O	     1.18034500	     1.33206400	     0.30907100
 C	     0.86351100	     0.16659000	    -0.30632400
 C	    -0.53018400	    -0.29771000	    -0.12810400
 O	    -1.33830900	     0.51505300	     0.59090800
 N	    -0.99145000	    -1.38975300	    -0.59944700
 C	    -2.40129900	    -1.44668000	    -0.18009500
 C	    -2.66193600	    -0.11985600	     0.58112100
 C	    -3.65998000	     0.81919700	    -0.08125300
 C	    -5.09186700	     0.28667600	     0.01023900
 N	     1.75381800	    -0.45381100	    -0.97630600
 H	     3.38170600	    -0.19559000	     1.95249200
 H	     2.78011700	    -1.67965400	     1.19403000
 H	     4.46071100	    -1.57950600	     1.74408500
 H	     4.33847000	    -1.35504600	    -0.74381800
 H	     4.97526300	     0.11720200	    -0.01424500
 H	     3.37553900	     0.57694100	    -1.82637900
 H	     2.56075000	     2.49676400	    -0.70216400
 H	     3.12666500	     1.80330100	     0.84035100
 H	    -2.56106800	    -2.33141800	     0.44551900
 H	    -3.04269100	    -1.54718800	    -1.06339200
 H	    -2.92957200	    -0.28713200	     1.62859200
 H	    -3.59439000	     1.80023200	     0.40417000
 H	    -3.36970100	     0.95707700	    -1.13116000
 H	    -5.19590700	    -0.68406600	    -0.48887400
 H	    -5.40004800	     0.16052200	     1.05544400
 H	    -5.79331900	     0.98074900	    -0.46495700

