42
L131.xyz
 C	    -5.46127000	    -0.19246300	     0.83750300
 C	    -4.59840800	    -1.37288400	     0.37335500
 C	    -5.02502700	    -1.84207800	    -1.02432200
 C	    -3.08232800	    -1.09507500	     0.45646000
 C	    -2.57836900	     0.06741300	    -0.39204200
 C	    -2.72856300	     1.48814700	     0.21620500
 N	    -1.36437800	     2.03905100	     0.28267100
 C	    -0.59419800	     1.11171600	    -0.13689800
 C	     0.87631200	     1.21289500	    -0.21768800
 N	     1.64791500	     0.27914400	    -0.61755400
 C	     3.02812500	     0.79203000	    -0.47998700
 C	     3.82376500	    -0.04741000	     0.52758900
 C	     3.91457900	    -1.54815900	     0.20700000
 C	     4.57706100	    -1.81465300	    -1.15004800
 C	     4.66517100	    -2.27596900	     1.32831200
 C	     2.84093300	     2.26443400	    -0.02886500
 O	     1.40492800	     2.39627700	     0.17584800
 O	    -1.12088000	    -0.06592600	    -0.53787400
 H	    -6.51835400	    -0.48218600	     0.87426200
 H	    -5.38240200	     0.66080600	     0.15256500
 H	    -5.17335300	     0.15017000	     1.83848000
 H	    -4.78137200	    -2.20504700	     1.06722600
 H	    -6.07364300	    -2.16296500	    -1.01987400
 H	    -4.93387700	    -1.04128300	    -1.76823500
 H	    -4.41587400	    -2.68807400	    -1.36529300
 H	    -2.54881500	    -1.99710900	     0.13258600
 H	    -2.79518900	    -0.91208400	     1.50057000
 H	    -2.98159200	     0.01839100	    -1.40677100
 H	    -3.15245300	     1.46350000	     1.22625600
 H	    -3.36320800	     2.13988400	    -0.39282900
 H	     3.51138500	     0.74536400	    -1.46082600
 H	     3.36221800	     0.08251500	     1.51644700
 H	     4.83709200	     0.37521000	     0.59377900
 H	     2.88991400	    -1.94014400	     0.16760800
 H	     5.58306600	    -1.37493200	    -1.18980800
 H	     4.67832900	    -2.89222500	    -1.32747200
 H	     3.99415500	    -1.39944000	    -1.97946400
 H	     5.70166800	    -1.92005700	     1.40272600
 H	     4.18601100	    -2.11332200	     2.30172300
 H	     4.69710300	    -3.35702200	     1.14588700
 H	     3.13911700	     2.99434700	    -0.78610800
 H	     3.33624000	     2.49785600	     0.91750800

