44
L132.xyz
 C	    -4.45283500	    -1.54650300	     1.10740400
 C	    -3.72351800	    -1.16128100	    -0.19731900
 C	    -4.76362700	    -0.81576900	    -1.28440100
 C	    -2.90123500	    -2.36923700	    -0.67229500
 C	    -2.84931500	     0.06854200	     0.06365600
 C	    -1.46731500	     0.07927400	    -0.14054500
 C	    -0.72004800	     1.24084400	     0.10765900
 C	     0.75609200	     1.24619900	    -0.10696400
 C	     1.51322000	     0.09515000	     0.13234200
 C	     2.89916800	     0.09445400	    -0.07783800
 C	     3.71906200	    -1.17043800	     0.19227900
 C	     3.18621200	    -2.31593800	    -0.69493900
 C	     3.56868200	    -1.56037500	     1.67830800
 C	     5.21104600	    -0.96772900	    -0.11278000
 C	     3.45751300	     1.29478200	    -0.52743800
 C	     2.62939100	     2.40087600	    -0.73081600
 N	     1.30981800	     2.39943800	    -0.53129800
 N	    -1.28124700	     2.38470600	     0.53477700
 C	    -2.60532600	     2.37608500	     0.73091800
 C	    -3.41905700	     1.26712500	     0.51842500
 H	    -5.09428200	    -0.73635200	     1.46950300
 H	    -5.08606700	    -2.42528100	     0.93733300
 H	    -3.73611900	    -1.79104400	     1.90001700
 H	    -4.27097400	    -0.53287800	    -2.22186800
 H	    -5.40224600	    -1.68459900	    -1.48336600
 H	    -5.41014600	     0.01340900	    -0.97854800
 H	    -2.15472600	    -2.67085600	     0.07140500
 H	    -2.38300000	    -2.16419200	    -1.61590300
 H	    -3.56822700	    -3.22228000	    -0.83867500
 H	    -0.95964500	    -0.80017800	    -0.51452800
 H	     1.01902200	    -0.79504100	     0.50419000
 H	     2.13428800	    -2.53706000	    -0.48525600
 H	     3.76329500	    -3.23046300	    -0.51389800
 H	     3.27386200	    -2.06231600	    -1.75777700
 H	     4.15122900	    -2.46492100	     1.88975900
 H	     2.52552000	    -1.76438800	     1.94148800
 H	     3.93250800	    -0.75970000	     2.33255500
 H	     5.75557800	    -1.89655700	     0.08994800
 H	     5.37924300	    -0.70604000	    -1.16363600
 H	     5.65068400	    -0.18186100	     0.51177800
 H	     4.51952400	     1.39071700	    -0.71816600
 H	     3.05953300	     3.33916100	    -1.07850400
 H	    -3.04208200	     3.30987300	     1.08181400
 H	    -4.48542100	     1.34747900	     0.70205800

