68
L137.xyz
 C	    -0.17168000	    -1.65264100	    -2.17237200
 C	    -0.79649300	    -1.02545600	    -0.90956500
 C	    -2.26787500	    -1.38285900	    -0.86947800
 O	    -3.00185400	    -0.85748600	    -1.88808400
 N	    -2.85168800	    -2.11258900	    -0.00343000
 C	    -4.28689600	    -2.10920500	    -0.35935200
 C	    -4.36620900	    -1.34070300	    -1.71605200
 C	    -5.35299800	    -0.17323900	    -1.54153100
 C	    -5.65700700	    -0.15489000	    -0.05996200
 C	    -5.09311800	    -1.25486100	     0.59516700
 C	    -5.26360800	    -1.43674400	     1.96645700
 C	    -6.01592000	    -0.50290100	     2.68342800
 C	    -6.58477300	     0.59756600	     2.03076000
 C	    -6.40851700	     0.77747600	     0.65595600
 C	    -0.12374200	    -1.53776900	     0.38283500
 C	     1.26108300	    -1.00913700	     0.59786000
 N	     2.00226100	    -0.40151800	    -0.24436700
 C	     3.27227100	    -0.10863600	     0.44627400
 C	     4.39310700	    -1.00224800	    -0.03657700
 C	     4.92106500	    -1.08777400	    -1.32367900
 C	     5.93411400	    -2.01602500	    -1.57872900
 C	     6.40587200	    -2.84627400	    -0.55459100
 C	     5.87156100	    -2.75877100	     0.73439000
 C	     4.85977500	    -1.83216500	     0.98882300
 C	     4.15103800	    -1.54989200	     2.29575600
 C	     3.03929700	    -0.55355000	     1.92205000
 O	     1.73717100	    -1.20417700	     1.85906600
 C	    -0.70819700	     0.49445900	    -0.91696300
 O	    -0.32292900	     1.08916000	    -2.07027100
 N	    -0.95718900	     1.22185500	     0.10171000
 C	    -0.59197900	     2.59809900	    -0.28255800
 C	    -0.30311700	     2.52512200	    -1.81425600
 C	     1.09884000	     3.10780800	    -2.05880900
 C	     1.69280500	     3.24685600	    -0.67481800
 C	     0.74257100	     2.99046000	     0.31937600
 C	     1.08663600	     3.04222200	     1.66893800
 C	     2.39788600	     3.37562000	     2.02049900
 C	     3.34810800	     3.64882000	     1.02848500
 C	     3.00088300	     3.58343900	    -0.32462900
 H	    -0.67473600	    -1.29856700	    -3.07427400
 H	    -0.27380400	    -2.74155400	    -2.11895500
 H	     0.88661300	    -1.39595800	    -2.22825600
 H	    -4.65429300	    -3.13845900	    -0.41597100
 H	    -4.59166900	    -1.96842000	    -2.57983400
 H	    -6.26070200	    -0.35126900	    -2.13140100
 H	    -4.91523900	     0.76422500	    -1.90126300
 H	    -4.80893900	    -2.28553800	     2.47018400
 H	    -6.15751000	    -0.62876500	     3.75337900
 H	    -7.16622900	     1.31921100	     2.59834000
 H	    -6.84944200	     1.63503900	     0.15381200
 H	    -0.09601000	    -2.63338200	     0.37279300
 H	    -0.72762300	    -1.24876100	     1.24564900
 H	     3.50485400	     0.95422000	     0.34341800
 H	     4.54227400	    -0.44860200	    -2.11695900
 H	     6.35593500	    -2.09691500	    -2.57693100
 H	     7.19288300	    -3.56596100	    -0.76373600
 H	     6.23931000	    -3.40763700	     1.52553800
 H	     3.73226500	    -2.44908300	     2.76062700
 H	     4.83389600	    -1.09998300	     3.02731800
 H	     2.94632200	     0.27372500	     2.62763300
 H	    -1.39549800	     3.29234800	    -0.01816100
 H	    -1.07364600	     2.97121900	    -2.44569600
 H	     1.68625700	     2.45271000	    -2.71059600
 H	     1.02271900	     4.08061100	    -2.56071700
 H	     0.34905500	     2.81533700	     2.43385300
 H	     2.68185000	     3.42294000	     3.06831800
 H	     4.36506100	     3.90645100	     1.31202200
 H	     3.74455200	     3.78337500	    -1.09200300

