54
L138.xyz
 C	     0.66438800	     0.69242900	    -0.28663500
 C	     1.87092200	     0.04102400	     0.31267100
 N	     2.62253200	    -0.82156300	    -0.25529900
 C	     3.70375900	    -1.15449700	     0.69542200
 C	     5.07913100	    -0.86428400	     0.12824900
 C	     5.30812400	     0.27834500	    -0.64849400
 C	     6.58801000	     0.56764200	    -1.12245600
 C	     7.65702400	    -0.28159300	    -0.82349400
 C	     7.43617600	    -1.42373300	    -0.05134300
 C	     6.15316500	    -1.71254200	     0.41871000
 C	     3.37090100	    -0.30085800	     1.95733500
 O	     2.18042000	     0.43671700	     1.57906800
 C	    -0.60212100	     0.43650800	     0.60274400
 C	    -1.71100700	    -0.23907000	    -0.15150100
 N	    -2.48134800	    -1.13623700	     0.33260100
 C	    -3.51254500	    -1.42546900	    -0.68782400
 C	    -4.89626000	    -1.03536700	    -0.20422300
 C	    -5.98261900	    -1.89542500	    -0.39290600
 C	    -7.26582700	    -1.52299900	     0.01528800
 C	    -7.47415400	    -0.28270000	     0.62071600
 C	    -6.39294100	     0.58194500	     0.81527100
 C	    -5.11348200	     0.20721400	     0.40613000
 C	    -3.04185500	    -0.61220200	    -1.92881500
 O	    -1.94109100	     0.18804200	    -1.42456100
 C	    -1.10867900	     1.74550000	     1.25090200
 C	    -1.42807900	     2.84640600	     0.22691700
 C	    -0.36804100	     2.92650400	    -0.90100400
 C	     0.92527800	     2.20105900	    -0.51804800
 H	     0.51764100	     0.22285700	    -1.26119200
 H	     3.64543000	    -2.22175500	     0.93444100
 H	     4.47746800	     0.93472300	    -0.89130800
 H	     6.75124700	     1.45526900	    -1.72800200
 H	     8.65344400	    -0.05673000	    -1.19399700
 H	     8.26017500	    -2.09306100	     0.18116100
 H	     5.98209200	    -2.60582400	     1.01502500
 H	     3.13337000	    -0.90659600	     2.83524000
 H	     4.15172700	     0.42047800	     2.20944100
 H	    -0.34970200	    -0.25076900	     1.41343700
 H	    -3.50927300	    -2.49694400	    -0.90983200
 H	    -5.82178900	    -2.86353800	    -0.86144300
 H	    -8.09944200	    -2.20359500	    -0.13597100
 H	    -8.47055400	     0.00826400	     0.94198100
 H	    -6.54671300	     1.54760800	     1.28960900
 H	    -4.27631700	     0.88034400	     0.56950800
 H	    -3.80026700	     0.06554700	    -2.32493200
 H	    -2.65882300	    -1.24725200	    -2.73220200
 H	    -0.32332900	     2.08815700	     1.93354100
 H	    -1.98672100	     1.52338200	     1.86709100
 H	    -2.41657700	     2.66956900	    -0.21152500
 H	    -1.49038200	     3.80249100	     0.75992500
 H	    -0.14634000	     3.97192600	    -1.14336700
 H	    -0.76501400	     2.46670800	    -1.81224100
 H	     1.35494200	     2.64533300	     0.38705300
 H	     1.67517100	     2.30690400	    -1.31027600

