55
L139.xyz
 C	     1.15276200	    -3.25148000	     1.43860700
 C	     2.63131300	    -2.97057800	     1.15439600
 C	     2.81210100	    -2.21750400	    -0.17884200
 C	     4.26475600	    -1.73085400	    -0.42941700
 O	     4.15171700	    -0.28494200	    -0.49582600
 N	     2.01201000	    -0.98074300	    -0.19999600
 C	     2.82334900	    -0.00469400	    -0.34569600
 C	     2.48177200	     1.42197100	    -0.34243600
 C	     3.47544100	     2.40485700	    -0.48976100
 C	     3.17815900	     3.77228200	    -0.45021800
 C	     1.87174700	     4.21911500	    -0.25534500
 C	     0.86093100	     3.26522600	    -0.10826700
 C	     1.17649200	     1.89369500	    -0.16042300
 O	     0.05348700	     1.12057900	    -0.00410500
 C	    -1.00203700	     1.98319300	     0.15414400
 C	    -2.34211800	     1.62096500	     0.33522800
 C	    -2.80550100	     0.22847300	     0.33457200
 N	    -2.08742300	    -0.81451000	     0.16400800
 C	    -2.99201600	    -1.97698200	     0.16822700
 C	    -2.89097400	    -2.76991000	    -1.14946400
 C	    -1.44663200	    -3.18887700	    -1.43899700
 C	    -3.81415000	    -3.99357600	    -1.11250700
 C	    -4.39537400	    -1.36249500	     0.41907700
 O	    -4.14991100	     0.06487400	     0.51413000
 C	    -3.24963000	     2.68340700	     0.48867600
 C	    -2.83957900	     4.02142400	     0.45429900
 C	    -1.50078900	     4.35849500	     0.25905200
 C	    -0.57352400	     3.32417500	     0.10697800
 C	     3.43963500	    -4.27338600	     1.15288700
 H	     1.03043800	    -3.71238300	     2.42641800
 H	     0.55674600	    -2.33528100	     1.40184400
 H	     0.74446300	    -3.94659400	     0.69434600
 H	     3.02198300	    -2.31271200	     1.94517900
 H	     2.46872700	    -2.87093500	    -0.99155000
 H	     4.68901700	    -2.08207400	    -1.37356500
 H	     4.95202100	    -1.97017400	     0.38674800
 H	     4.50010000	     2.08260600	    -0.63264500
 H	     3.98213400	     4.49201400	    -0.56916800
 H	     1.64396400	     5.28007000	    -0.21855700
 H	    -2.69947400	    -2.64216200	     0.99162000
 H	    -3.22849000	    -2.09649600	    -1.95147800
 H	    -0.77216000	    -2.32800200	    -1.43543600
 H	    -1.37743400	    -3.68617600	    -2.41421800
 H	    -1.09205200	    -3.89618400	    -0.67890400
 H	    -3.51285500	    -4.68086800	    -0.31100400
 H	    -4.86250000	    -3.72069600	    -0.94247300
 H	    -3.76558000	    -4.54409800	    -2.05928000
 H	    -4.86039500	    -1.69016000	     1.35210400
 H	    -5.09325100	    -1.52249100	    -0.40805200
 H	    -4.29736800	     2.44742600	     0.63219100
 H	    -3.58068400	     4.80508800	     0.57741700
 H	    -1.18477900	     5.39669400	     0.22606100
 H	     4.50992700	    -4.10129600	     0.98825900
 H	     3.08348100	    -4.94803300	     0.36321500
 H	     3.33274700	    -4.79604600	     2.11063400

