103
L144.xyz
 C	    -5.10437500	     0.07038000	     2.44652700
 C	    -4.07033800	     0.23531200	     3.58192100
 C	    -2.69984300	    -0.22175700	     3.06609200
 C	    -2.51095800	    -1.55460800	     2.66256100
 C	    -1.30158300	    -1.98661900	     2.12634000
 C	    -1.60448000	     0.64153500	     2.94325600
 C	    -0.39044100	     0.20938200	     2.40333600
 C	    -0.22385900	    -1.10520900	     1.96091600
 C	     1.02389300	    -1.56290900	     1.23931400
 C	     0.99175100	    -1.28861200	    -0.30637100
 C	     1.20056200	     0.17721900	    -0.63022500
 N	     0.94111900	     0.73751300	    -1.74430100
 C	     1.24607700	     2.17546100	    -1.57967500
 C	    -0.06962300	     2.98182400	    -1.55064000
 C	    -0.98987500	     2.59732900	    -0.37941200
 C	    -2.30344400	     3.38754600	    -0.41900800
 C	    -2.04644300	     4.89968400	    -0.43247000
 C	    -1.12008400	     5.29328200	    -1.59099600
 C	     0.19184700	     4.49608800	    -1.56118700
 C	     2.07173200	     2.21473000	    -0.27481400
 O	     1.79613700	     0.92740200	     0.34013200
 C	     2.12735800	    -2.09441700	    -1.02798700
 C	     3.51798000	    -1.61454400	    -0.69219900
 C	     4.22240300	    -2.12547900	     0.40619300
 C	     5.48127700	    -1.63426700	     0.74296700
 C	     6.09738400	    -0.61521600	    -0.00311900
 C	     7.47940000	    -0.09149700	     0.41059100
 C	     7.98290000	     1.02278200	    -0.52043500
 C	     7.39898300	     0.47528200	     1.84428400
 C	     8.49908000	    -1.24984600	     0.37645000
 C	     5.39756500	    -0.12403200	    -1.11294500
 C	     4.13498300	    -0.61549000	    -1.45189100
 C	    -0.36179600	    -1.74374100	    -0.80816500
 N	    -1.39183000	    -1.02282100	    -0.99780700
 C	    -2.52609600	    -1.93371600	    -1.23640400
 C	    -3.39473700	    -1.50392900	    -2.42227100
 C	    -3.99412200	    -0.09178800	    -2.20007500
 C	    -5.38492400	    -0.16859000	    -1.56190700
 C	    -6.39096300	    -0.86106300	    -2.50828300
 C	    -5.70659100	    -1.92818900	    -3.39296500
 C	    -4.50862500	    -2.55141800	    -2.66889800
 C	    -1.85210300	    -3.31549700	    -1.40120900
 O	    -0.49703700	    -3.09990400	    -0.91560300
 C	    -4.06749900	     1.70837400	     4.02024900
 C	    -4.49207100	    -0.62833500	     4.78894700
 H	    -5.18663300	    -0.97355100	     2.12525200
 H	    -6.09666000	     0.39879700	     2.78019700
 H	    -4.82077500	     0.66994400	     1.57409600
 H	    -3.32497700	    -2.26785100	     2.75487300
 H	    -1.19865200	    -3.01923600	     1.80214800
 H	    -1.68726300	     1.67642600	     3.25590500
 H	     0.42694900	     0.91321200	     2.29688500
 H	     1.91662300	    -1.08649400	     1.64748400
 H	     1.13843500	    -2.64377300	     1.36527600
 H	     1.84663400	     2.52107600	    -2.42801800
 H	    -0.59719400	     2.72414100	    -2.48115300
 H	    -0.48238100	     2.80901700	     0.57242400
 H	    -1.19503700	     1.52325600	    -0.40178600
 H	    -2.92978100	     3.11190400	     0.43969600
 H	    -2.86663100	     3.10649800	    -1.32105700
 H	    -1.57788800	     5.19271700	     0.51908000
 H	    -2.99343300	     5.45076800	    -0.50063100
 H	    -1.63436400	     5.09948300	    -2.54367900
 H	    -0.90745200	     6.36980300	    -1.56094800
 H	     0.76086900	     4.77500900	    -0.66161600
 H	     0.81689200	     4.76307000	    -2.42412000
 H	     1.77957400	     2.99287700	     0.43178200
 H	     3.14929700	     2.26948000	    -0.45651900
 H	     2.00860800	    -3.14739900	    -0.75982100
 H	     1.95596300	    -2.00558800	    -2.10533800
 H	     3.77899300	    -2.91655700	     1.00561200
 H	     5.99091500	    -2.05591200	     1.60446900
 H	     8.96697800	     1.36710400	    -0.18253700
 H	     7.31017100	     1.88812200	    -0.52001200
 H	     8.09042000	     0.67310900	    -1.55357300
 H	     6.68185700	     1.30300400	     1.89738700
 H	     8.37930700	     0.85281000	     2.16029500
 H	     7.08568600	    -0.28726000	     2.56515100
 H	     8.21865400	    -2.05801000	     1.06021000
 H	     8.57629100	    -1.67319300	    -0.63198500
 H	     9.49274200	    -0.89123600	     0.67216100
 H	     5.83250300	     0.65110100	    -1.73384200
 H	     3.61800600	    -0.20906300	    -2.31688500
 H	    -3.14597000	    -1.91715200	    -0.32805300
 H	    -2.74175200	    -1.47083900	    -3.30499300
 H	    -4.07262100	     0.42718200	    -3.16431000
 H	    -3.31192700	     0.50100600	    -1.58329000
 H	    -5.31314300	    -0.72811600	    -0.62019000
 H	    -5.74160800	     0.83316300	    -1.29386000
 H	    -6.87510000	    -0.11378500	    -3.14967200
 H	    -7.18896900	    -1.32576300	    -1.91514200
 H	    -5.35400600	    -1.47073400	    -4.32699300
 H	    -6.42793500	    -2.70201800	    -3.68161400
 H	    -4.85027300	    -2.95802800	    -1.70565100
 H	    -4.10870500	    -3.39941500	    -3.23734100
 H	    -1.78354300	    -3.62851400	    -2.44937700
 H	    -2.30099900	    -4.11452100	    -0.80953900
 H	    -5.06331300	     1.98566500	     4.38447600
 H	    -3.82023500	     2.37978000	     3.19004200
 H	    -3.35360100	     1.89006400	     4.83197700
 H	    -4.56274900	    -1.68948300	     4.52766000
 H	    -3.77190500	    -0.53115100	     5.61005300
 H	    -5.47453300	    -0.31041700	     5.15910700

