40
L145.xyz
 C	     0.63298400	    -0.18020000	    -0.38214400
 C	    -0.63298600	    -0.18020100	     0.38214000
 N	    -1.24571300	     0.87266400	     0.76246600
 C	    -2.48397400	     0.39777600	     1.41441000
 C	    -2.34357200	    -1.15519900	     1.47581200
 C	    -3.58904200	    -1.76792000	     0.81453400
 C	    -4.29040500	    -0.59148500	     0.17280900
 C	    -3.69635000	     0.62244200	     0.53460600
 C	    -4.19548700	     1.83525100	     0.06298300
 C	    -5.31067100	     1.82355700	    -0.77867400
 C	    -5.91097600	     0.61135700	    -1.14039500
 C	    -5.40473100	    -0.60235100	    -0.66667200
 O	    -1.14565900	    -1.39980500	     0.67511100
 N	     1.24571300	     0.87266500	    -0.76246400
 C	     2.48397400	     0.39777700	    -1.41440900
 C	     2.34357200	    -1.15519700	    -1.47581300
 C	     3.58904100	    -1.76792000	    -0.81453200
 C	     4.29040400	    -0.59148500	    -0.17280800
 C	     3.69635000	     0.62244200	    -0.53460500
 C	     4.19548900	     1.83525100	    -0.06298200
 C	     5.31067300	     1.82355500	     0.77867500
 C	     5.91097600	     0.61135600	     1.14039600
 C	     5.40473000	    -0.60235300	     0.66667300
 O	     1.14565700	    -1.39980400	    -0.67511600
 H	    -2.58295100	     0.87044400	     2.39618600
 H	    -2.14233500	    -1.55421000	     2.47128900
 H	    -3.31000600	    -2.54787000	     0.09814900
 H	    -4.22331200	    -2.24199500	     1.57383400
 H	    -3.71781000	     2.77191700	     0.33708700
 H	    -5.71228200	     2.75937400	    -1.15741100
 H	    -6.77678400	     0.61392900	    -1.79713100
 H	    -5.87249000	    -1.54117000	    -0.95239800
 H	     2.58295100	     0.87044700	    -2.39618400
 H	     2.14233800	    -1.55420800	    -2.47129200
 H	     4.22331000	    -2.24199700	    -1.57383000
 H	     3.31000200	    -2.54786900	    -0.09814700
 H	     3.71781300	     2.77191700	    -0.33708600
 H	     5.71228500	     2.75937200	     1.15741200
 H	     6.77678400	     0.61392600	     1.79713200
 H	     5.87248900	    -1.54117200	     0.95239900

