24
L146.xyz
 C	    -3.88665200	     0.78531400	     0.45697800
 C	    -2.89488000	     0.11071700	    -0.48797600
 C	    -2.51427000	    -1.33301400	    -0.06327800
 O	    -1.07889400	    -1.27006900	     0.17540800
 C	    -0.72069200	     0.00453900	    -0.11389200
 C	     0.71606000	     0.32097600	     0.04635300
 O	     1.49529700	    -0.68208700	     0.51291600
 N	     1.23804500	     1.45446500	    -0.22072700
 C	     2.66768600	     1.32483300	     0.10429600
 C	     2.87063100	    -0.16419200	     0.48791400
 C	     3.68182600	    -0.96837600	    -0.50953000
 N	    -1.60705300	     0.83747000	    -0.49599800
 H	    -3.49764600	     0.78905900	     1.48192600
 H	    -4.84349700	     0.25040600	     0.45116100
 H	    -4.06649600	     1.82130500	     0.15180000
 H	    -3.30056500	     0.12407600	    -1.50595800
 H	    -2.69153900	    -2.08047700	    -0.84029500
 H	    -2.99357700	    -1.65256000	     0.86645800
 H	     2.91627100	     2.00799700	     0.92438900
 H	     3.27468700	     1.61146500	    -0.76207900
 H	     3.26040200	    -0.28585300	     1.50123600
 H	     3.27341500	    -0.85283900	    -1.52011000
 H	     4.71830200	    -0.61153100	    -0.51305900
 H	     3.68381000	    -2.03211800	    -0.25019300

