21
L149.xyz
 N	     1.70086300	    -0.57268900	     1.50236400
 C	     1.21493300	     0.29575400	     0.41599500
 C	    -0.27760000	     0.14605500	     0.20223900
 C	    -1.12561800	     1.25737300	     0.27709100
 C	    -2.49695300	     1.13004600	     0.04623600
 C	    -3.04153800	    -0.11760900	    -0.26322300
 C	    -2.20557500	    -1.23427900	    -0.34171800
 C	    -0.83536100	    -1.10153900	    -0.11440500
 C	     1.97400200	     0.06665200	    -0.90608400
 O	     3.38585400	     0.17390600	    -0.72977700
 H	     2.72064600	    -0.57736900	     1.43748200
 H	     1.42074300	    -1.53426900	     1.30474000
 H	     1.41218700	     1.33281300	     0.72252200
 H	    -0.70663300	     2.23026600	     0.52243300
 H	    -3.13895400	     2.00445600	     0.11169300
 H	    -4.10854000	    -0.22026100	    -0.44110500
 H	    -2.62019400	    -2.20951100	    -0.58266800
 H	    -0.19785400	    -1.97969100	    -0.18261000
 H	     1.61316700	     0.76430600	    -1.67678200
 H	     1.79572600	    -0.95299700	    -1.26464300
 H	     3.57908900	     1.10511200	    -0.52617700

