50
L15.xyz
 C	    -6.68567900	    -0.70794900	     0.72014100
 C	    -5.51491200	    -1.69845800	     0.74695300
 C	    -4.39184200	    -1.26809200	    -0.20535500
 C	    -3.90334100	     0.15670100	     0.09797300
 C	    -2.79712400	     0.59952900	    -0.87033700
 C	    -2.15773700	     1.96622700	    -0.50893600
 O	    -0.72603500	     1.70099600	    -0.49455900
 C	    -0.60985900	     0.36278300	    -0.66689900
 C	     0.76390700	    -0.17175600	    -0.59782800
 N	     1.80323200	     0.52409000	    -0.34930500
 C	     2.95061800	    -0.40696800	    -0.39056900
 C	     3.79391600	    -0.33305900	     0.89624500
 C	     4.99474000	    -1.30044000	     0.83724400
 C	     6.09125300	    -0.83287900	    -0.13153700
 C	     6.55504300	     0.59284200	     0.19572300
 C	     5.37297800	     1.57081900	     0.22891400
 C	     4.28223100	     1.09599300	     1.19965200
 C	     2.29890100	    -1.79583700	    -0.61933600
 O	     0.88778400	    -1.50096400	    -0.82639000
 N	    -1.65422700	    -0.33854400	    -0.87630000
 C	    -5.08313300	     1.14421000	     0.06596900
 C	    -6.20777500	     0.71841600	     1.01903200
 H	    -7.45798800	    -1.00904700	     1.43950100
 H	    -7.15394000	    -0.72980100	    -0.27501700
 H	    -5.86173400	    -2.70629300	     0.48536000
 H	    -5.11635700	    -1.75859100	     1.77039800
 H	    -3.55054900	    -1.96648600	    -0.14868000
 H	    -4.76118900	    -1.30159000	    -1.24176000
 H	    -3.47244700	     0.16525600	     1.11156900
 H	    -3.21603600	     0.61820800	    -1.88563500
 H	    -2.34613400	     2.75642100	    -1.23782200
 H	    -2.43698200	     2.31690800	     0.48968200
 H	     3.56702900	    -0.12356600	    -1.25058900
 H	     3.13148700	    -0.65198900	     1.71342500
 H	     5.42287100	    -1.37105800	     1.84666900
 H	     4.66288300	    -2.31299900	     0.57279500
 H	     6.93942200	    -1.52793700	    -0.08834700
 H	     5.71830500	    -0.86526400	    -1.16473100
 H	     7.30638200	     0.92498700	    -0.53218500
 H	     7.04690100	     0.59168400	     1.17984200
 H	     4.95403400	     1.67148000	    -0.78182900
 H	     5.71656100	     2.57114000	     0.52156200
 H	     4.69005500	     1.10580300	     2.22038500
 H	     3.43228900	     1.78605200	     1.18745500
 H	     2.66513700	    -2.32270700	    -1.50243500
 H	     2.37357400	    -2.45198300	     0.25369900
 H	    -4.74482400	     2.15724700	     0.31933300
 H	    -5.47488100	     1.19065200	    -0.96139000
 H	    -7.04462700	     1.42492900	     0.94912400
 H	    -5.83938200	     0.76697800	     2.05414900

