46
L151.xyz
 C	     2.67448000	     3.44591100	     0.65801000
 N	     1.69560500	     2.99393600	    -0.32017100
 C	     0.81980600	     1.93730800	     0.18293200
 C	    -0.41159500	     1.85343300	    -0.75865600
 C	    -1.39014500	     0.75720400	    -0.37159700
 C	    -1.89216800	     0.60483400	     0.93316400
 C	    -2.80849500	    -0.39289400	     1.24274100
 C	    -3.25348300	    -1.27939800	     0.25024500
 O	    -4.14892400	    -2.22468700	     0.65163600
 C	    -4.61051600	    -3.15554800	    -0.32130800
 C	    -2.76473000	    -1.14828200	    -1.05449000
 C	    -1.84539000	    -0.13613400	    -1.34448800
 N	    -1.01162900	     3.19564000	    -0.92794000
 C	    -1.77350700	     3.72893100	     0.19895800
 C	     1.54147600	     0.60229200	     0.23753500
 C	     1.40531000	    -0.25727100	     1.33552000
 C	     2.02569200	    -1.50160200	     1.36015600
 C	     2.81041400	    -1.91812500	     0.27512500
 O	     3.37948100	    -3.15253300	     0.38675800
 C	     4.18079600	    -3.61323300	    -0.69503600
 C	     2.96806500	    -1.06676300	    -0.82626500
 C	     2.33490000	     0.17834900	    -0.83142000
 H	     3.23624300	     4.29255000	     0.24842100
 H	     2.23066500	     3.76038100	     1.62156000
 H	     3.38719000	     2.64107800	     0.87261800
 H	     1.08950600	     3.76384100	    -0.60145900
 H	     0.46696000	     2.16609100	     1.20494600
 H	    -0.01439700	     1.60126500	    -1.74817500
 H	    -1.55586200	     1.26504500	     1.72597100
 H	    -3.18975300	    -0.50746200	     2.25308400
 H	    -5.13900900	    -2.65232100	    -1.14092400
 H	    -5.30392400	    -3.81732600	     0.20158800
 H	    -3.78453000	    -3.74891500	    -0.73347400
 H	    -3.08138500	    -1.82204200	    -1.84200100
 H	    -1.46771500	    -0.04934700	    -2.36090700
 H	    -1.61539600	     3.16607100	    -1.74696800
 H	    -2.13932600	     4.72523200	    -0.07186300
 H	    -1.12167200	     3.84249900	     1.07181800
 H	    -2.63802500	     3.11678600	     0.49962600
 H	     0.79980200	     0.05023100	     2.18384700
 H	     1.91727700	    -2.16578800	     2.21241700
 H	     3.60001700	    -3.68801100	    -1.62324300
 H	     4.52995000	    -4.60736400	    -0.40817700
 H	     5.04710200	    -2.96035400	    -0.86216700
 H	     3.57679100	    -1.35829000	    -1.67432400
 H	     2.47174200	     0.84281200	    -1.67934800

