38
L153.xyz
 C	    -3.62025100	    -1.10886700	     1.68319600
 C	    -4.03701300	    -1.50404000	     0.26185400
 C	    -3.61812100	    -2.94415000	    -0.05092900
 C	    -3.48134200	    -0.53158200	    -0.80310500
 N	    -2.01181800	    -0.42902400	    -0.71270900
 C	    -1.74430900	     0.77773100	    -0.39290200
 C	    -0.39930800	     1.33269500	    -0.11700900
 C	    -0.23871900	     2.68862600	     0.18447800
 C	     1.04990000	     3.14526400	     0.45737800
 C	     2.11320600	     2.25180000	     0.41343600
 C	     1.86466100	     0.90612400	     0.08234000
 C	     2.94971000	    -0.10733700	     0.01141800
 C	     4.30106300	     0.25962700	    -0.09601300
 C	     5.29901400	    -0.71249800	    -0.15683400
 C	     4.96527500	    -2.06762900	    -0.11189000
 C	     3.62298900	    -2.44368600	    -0.01245400
 C	     2.62486000	    -1.47406200	     0.04574900
 N	     0.62212700	     0.46755100	    -0.16975500
 O	    -2.77453900	     1.66322600	    -0.27172300
 C	    -3.97025600	     0.93028900	    -0.65012500
 H	    -4.09559500	    -1.76831900	     2.41840800
 H	    -3.90689200	    -0.07967700	     1.92973200
 H	    -2.53491600	    -1.19397600	     1.80679800
 H	    -5.13246500	    -1.43745900	     0.18844300
 H	    -4.04034800	    -3.64266900	     0.68120700
 H	    -2.52717200	    -3.04337900	    -0.02509900
 H	    -3.96019100	    -3.25168600	    -1.04688400
 H	    -3.74611500	    -0.92390500	    -1.79154200
 H	    -1.09349800	     3.35299500	     0.20919700
 H	     1.22042700	     4.18754600	     0.71000100
 H	     3.11541800	     2.58926300	     0.65000800
 H	     4.58195600	     1.30625500	    -0.15458800
 H	     6.33851900	    -0.40917200	    -0.24580500
 H	     5.74383500	    -2.82406600	    -0.15817600
 H	     3.35301000	    -3.49566500	     0.02133000
 H	     1.58131900	    -1.75972700	     0.11848200
 H	    -4.34356800	     1.35618400	    -1.58598500
 H	    -4.71773200	     1.07214400	     0.13397700

