80
L154.xyz
 C	     5.09436800	    -3.46534900	    -0.88081900
 C	     4.12426500	    -3.63359000	     0.30800700
 C	     3.02782700	    -2.56037100	     0.22756600
 C	     3.39562200	    -1.20296400	     0.25835700
 C	     2.47062500	    -0.15344500	     0.18885100
 C	     2.93522700	     1.23556900	     0.22314900
 N	     4.14983500	     1.62908400	     0.28780900
 C	     4.13807600	     3.10275900	     0.31902300
 C	     5.06822700	     3.71772100	    -0.74033900
 C	     6.50087500	     3.20014000	    -0.58648500
 C	     5.02814700	     5.24874100	    -0.66122800
 C	     2.64509100	     3.47083500	     0.12355500
 O	     1.95592400	     2.19393600	     0.18857000
 C	     1.11230700	    -0.49874000	     0.08470800
 N	    -0.01203400	     0.29731900	    -0.00151500
 C	    -1.13827500	    -0.49509900	    -0.08792500
 C	    -2.49380300	    -0.14950000	    -0.19080200
 C	    -2.95617000	     1.23938800	    -0.22450600
 N	    -4.17025700	     1.63578800	    -0.28782000
 C	    -4.15542100	     3.10928400	    -0.32007900
 C	    -5.08464300	     3.72733500	     0.73828800
 C	    -5.04069300	     5.25821900	     0.65836400
 C	    -6.51847900	     3.21323900	     0.58385900
 C	    -2.66183800	     3.47441200	    -0.12432900
 O	    -1.97505100	     2.19667400	    -0.19137000
 C	    -3.42570700	    -1.19900100	    -0.26022800
 C	    -3.05874500	    -2.55178900	    -0.23061600
 C	    -4.09416000	    -3.68478500	    -0.30457200
 C	    -3.80169800	    -4.56571300	    -1.53778200
 C	    -5.53215100	    -3.15518700	    -0.42124900
 C	    -3.99842800	    -4.54714500	     0.97217000
 C	    -1.69363800	    -2.86992000	    -0.12836000
 C	    -0.73677200	    -1.86060600	    -0.05721100
 C	     0.71164400	    -1.86078100	     0.05318600
 C	     1.66714800	    -2.87713600	     0.12407300
 C	     4.90495800	    -3.47155600	     1.62965300
 C	     3.54673700	    -5.05695800	     0.26099500
 H	     5.88565500	    -4.22383900	    -0.83714700
 H	     5.57449600	    -2.48101800	    -0.87686200
 H	     4.56633800	    -3.57850500	    -1.83504300
 H	     4.44119100	    -0.92819500	     0.34021300
 H	     4.49130600	     3.42576500	     1.30900800
 H	     4.68615000	     3.40485100	    -1.72328400
 H	     6.91439400	     3.48327900	     0.39073100
 H	     7.15192100	     3.62490400	    -1.35985100
 H	     6.53797100	     2.10953600	    -0.66384700
 H	     5.38235300	     5.59611200	     0.31823800
 H	     5.67507200	     5.69314900	    -1.42640100
 H	     4.01721200	     5.64606700	    -0.81223000
 H	     2.43986900	     3.90824200	    -0.85907300
 H	     2.23520100	     4.11644900	     0.90234800
 H	    -0.01077200	     1.30648900	    -0.00114900
 H	    -4.50751500	     3.43255100	    -1.31046200
 H	    -4.70397700	     3.41408600	     1.72166900
 H	    -5.68726500	     5.70475300	     1.42261200
 H	    -4.02891200	     5.65310900	     0.81012500
 H	    -5.39303900	     5.60592100	    -0.32166400
 H	    -7.16890700	     3.63964100	     1.35686100
 H	    -6.93083600	     3.49728900	    -0.39359100
 H	    -6.55817300	     2.12272600	     0.66121100
 H	    -2.45596700	     3.91018900	     0.85895900
 H	    -2.25101500	     4.12069500	    -0.90210900
 H	    -4.46732600	    -0.91623000	    -0.33989400
 H	    -3.86298800	    -3.97784900	    -2.46120700
 H	    -4.53097600	    -5.38241500	    -1.60473400
 H	    -2.80314800	    -5.01338700	    -1.48980500
 H	    -5.81285800	    -2.54353700	     0.44370500
 H	    -6.23010400	    -3.99860000	    -0.47189100
 H	    -5.67248000	    -2.55296100	    -1.32606100
 H	    -4.20648700	    -3.94644400	     1.86543300
 H	    -3.00358100	    -4.99026900	     1.08941200
 H	    -4.72710600	    -5.36628600	     0.93504200
 H	    -1.37408200	    -3.90738000	    -0.10414900
 H	     1.33896100	    -3.90986000	     0.09742600
 H	     4.23919700	    -3.58609600	     2.49324500
 H	     5.69210900	    -4.23207500	     1.70295400
 H	     5.38279300	    -2.48875800	     1.70121700
 H	     3.00152700	    -5.24488600	    -0.67114400
 H	     2.86824400	    -5.24937100	     1.10006000
 H	     4.36262500	    -5.78610500	     0.32057400

