58
L156.xyz
 C	    -2.92215800	     1.98155600	     0.05208900
 C	    -3.99061600	     1.45399900	    -0.91249300
 C	    -3.60876800	     0.07820200	    -1.50296500
 C	    -2.30175100	     0.08783300	    -2.33362800
 O	    -1.39245200	    -0.74945800	    -1.57477700
 C	    -2.12219000	    -1.26643900	    -0.54409800
 C	    -1.44617300	    -2.22496900	     0.35031100
 C	    -0.04570200	    -2.23395400	     0.57692100
 N	     0.76074200	    -1.24120100	     0.02368500
 C	     2.08430100	    -1.31871100	    -0.35897600
 C	     2.82324800	    -0.11841400	    -0.58670300
 C	     2.21870300	     1.20167000	    -0.40405000
 N	     0.97352900	     1.45525200	    -0.20237000
 C	     0.83975800	     2.90282200	     0.02721900
 C	     0.36973400	     3.18641200	     1.47129300
 C	     0.09343300	     4.68148800	     1.66185000
 C	     1.34266700	     2.64939700	     2.52560200
 C	     2.24089900	     3.45236700	    -0.33296300
 O	     3.07041200	     2.26513500	    -0.43912600
 C	     4.16708300	    -0.19881600	    -0.99061900
 C	     4.79699000	    -1.42073900	    -1.18189700
 C	     4.06371800	    -2.59661500	    -0.98281000
 C	     2.73458700	    -2.55003300	    -0.58502000
 C	     0.48428300	    -3.20166400	     1.45233100
 C	    -0.33538900	    -4.13970400	     2.06755400
 C	    -1.71722300	    -4.12704800	     1.85019900
 C	    -2.25746900	    -3.16498200	     1.00696100
 N	    -3.34656300	    -0.90664500	    -0.43719800
 C	    -5.36238800	     1.39261100	    -0.23372900
 H	    -3.16506300	     2.99975200	     0.37769400
 H	    -1.92913700	     2.00742700	    -0.40794000
 H	    -2.85888800	     1.34760200	     0.94337200
 H	    -4.05753600	     2.14210900	    -1.76823300
 H	    -4.44904000	    -0.27430200	    -2.11285200
 H	    -2.41977000	    -0.36014500	    -3.32429700
 H	    -1.84423900	     1.07473700	    -2.43769600
 H	     0.33577900	    -0.32659300	    -0.13841300
 H	     0.08318400	     3.30410200	    -0.65596700
 H	    -0.57889100	     2.64656000	     1.58584800
 H	    -0.63261100	     5.04942500	     0.92620900
 H	    -0.31196300	     4.87668700	     2.66135200
 H	     1.00950800	     5.27697400	     1.55673800
 H	     0.94127700	     2.81347100	     3.53234600
 H	     1.50684500	     1.57382000	     2.40138900
 H	     2.31692000	     3.15182800	     2.47635900
 H	     2.25922900	     3.96449700	    -1.29953500
 H	     2.68320100	     4.10038800	     0.42567400
 H	     4.70928400	     0.72542800	    -1.15480000
 H	     5.83624700	    -1.46051400	    -1.49235000
 H	     4.52861200	    -3.56400500	    -1.15345900
 H	     2.17745800	    -3.47185200	    -0.47130600
 H	     1.54438300	    -3.18605200	     1.67619000
 H	     0.10625200	    -4.87086400	     2.73910600
 H	    -2.36114700	    -4.85471600	     2.33425900
 H	    -3.32580200	    -3.12875300	     0.82264400
 H	    -6.14048100	     1.06611900	    -0.93491000
 H	    -5.65141300	     2.37569200	     0.15667100
 H	    -5.34728700	     0.68630500	     0.60403400

