40
L157.xyz
 C	     2.49554500	    -0.33972500	    -0.13881300
 C	     2.45526200	     1.04526400	     0.36499800
 N	     3.33635100	     1.94148100	     0.11558000
 C	     2.94598700	     3.14229100	     0.87307600
 C	     1.54302900	     2.81227600	     1.42389300
 O	     1.41583800	     1.38574800	     1.18316200
 C	     1.33854900	    -1.14312800	    -0.32438600
 N	     0.07349500	    -0.61047800	    -0.09365700
 C	    -1.09470600	    -1.25777000	     0.25746000
 C	    -2.34374000	    -0.58181600	     0.10823000
 C	    -2.42532000	     0.78808800	    -0.40405600
 N	    -1.43981000	     1.58030600	    -0.64055100
 C	    -1.99591000	     2.84030600	    -1.15022500
 C	    -3.52696100	     2.64438900	    -1.07278200
 O	    -3.67983500	     1.26452000	    -0.64362300
 C	    -3.53240300	    -1.23727100	     0.47295700
 C	    -3.52435700	    -2.52674000	     0.98689300
 C	    -2.29670600	    -3.17460700	     1.16487500
 C	    -1.10552100	    -2.55362400	     0.81421200
 C	     1.50683400	    -2.44284300	    -0.84232400
 C	     2.76925100	    -2.94233300	    -1.13709400
 C	     3.90909000	    -2.15381100	    -0.94906900
 C	     3.75811200	    -0.86045900	    -0.46695500
 H	     2.94230700	     4.02084500	     0.22026000
 H	     3.67601200	     3.32473000	     1.67197000
 H	     0.73675400	     3.31462000	     0.88058300
 H	     1.42557100	     2.98492500	     2.49542100
 H	    -0.02713400	     0.40228100	    -0.17751600
 H	    -1.64661900	     3.01133500	    -2.17514500
 H	    -1.65209200	     3.68061700	    -0.53793100
 H	    -4.00893800	     3.28395500	    -0.32805900
 H	    -4.03649900	     2.75655500	    -2.03237500
 H	    -4.46981800	    -0.70778600	     0.34753400
 H	    -4.45460900	    -3.01522200	     1.25906000
 H	    -2.26359400	    -4.17171300	     1.59574300
 H	    -0.16612700	    -3.06008100	     0.99724500
 H	     0.63179700	    -3.04612800	    -1.05109200
 H	     2.85996900	    -3.94883200	    -1.53638700
 H	     4.89636300	    -2.54091500	    -1.18098400
 H	     4.62216000	    -0.22141500	    -0.31959300

