74
L158.xyz
 C	    -1.72134600	     5.01099000	    -1.20727000
 C	    -2.23286400	     4.23172000	     0.00711000
 C	    -1.80597000	     4.91090100	     1.31305900
 C	    -3.77173100	     4.00077300	    -0.05318100
 O	    -3.93112400	     2.55862400	     0.00162400
 C	    -2.67317000	     2.04008000	    -0.01137700
 C	    -2.55236700	     0.58480600	    -0.00958300
 C	    -1.28137800	    -0.00705800	    -0.00650400
 N	    -0.04113900	     0.58730300	    -0.00501000
 C	     0.93704200	    -0.38660400	    -0.00231500
 C	     2.33496500	    -0.27838800	     0.00130900
 C	     3.02864400	     1.01191500	     0.00682600
 N	     4.29365700	     1.19570600	     0.03453100
 C	     4.53738100	     2.65599000	    -0.00075900
 C	     5.37822600	     3.06549300	     1.21097300
 C	     5.25437100	     3.00800000	    -1.30922600
 C	     3.10637900	     3.26601900	     0.05481100
 O	     2.22265600	     2.11960700	    -0.02351300
 C	     3.07724500	    -1.47157800	     0.00339900
 C	     2.48460900	    -2.74183600	     0.00362900
 C	     3.31407800	    -4.03535300	     0.00643500
 C	     2.96972200	    -4.85965400	     1.26521700
 C	     4.82611800	    -3.76042600	     0.00904000
 C	     2.97450100	    -4.86223000	    -1.25194500
 C	     1.08107300	    -2.82267100	     0.00118300
 C	     0.30710900	    -1.66558900	    -0.00190500
 C	    -1.12610300	    -1.41777100	    -0.00422300
 C	    -2.25563100	    -2.23434300	    -0.00387800
 C	    -3.54380300	    -1.67129200	    -0.00683600
 C	    -4.76935300	    -2.59923700	    -0.00216900
 C	    -6.09413300	    -1.82013400	    -0.02549100
 C	    -4.74372400	    -3.47064800	     1.27175900
 C	    -4.72607300	    -3.51332400	    -1.24526000
 C	    -3.66447800	    -0.27144600	    -0.00999900
 N	    -1.68373400	     2.85890300	    -0.02070600
 H	    -2.00555500	     4.50652800	    -2.13735900
 H	    -2.13932600	     6.02468200	    -1.22061300
 H	    -0.62888200	     5.08807100	    -1.17848100
 H	    -2.20366700	     5.93141500	     1.36657800
 H	    -2.17440600	     4.34971900	     2.17911300
 H	    -0.71345800	     4.96085100	     1.37651200
 H	    -4.31099100	     4.43187300	     0.79431700
 H	    -4.22217100	     4.35316400	    -0.98600700
 H	     0.09288600	     1.59181100	    -0.00951000
 H	     6.35453900	     2.56964600	     1.18491400
 H	     4.87464400	     2.78492700	     2.14270000
 H	     5.54173500	     4.14987100	     1.21873800
 H	     5.44663200	     4.08617400	    -1.36598500
 H	     6.21255400	     2.48131800	    -1.37334200
 H	     4.64560900	     2.71950700	    -2.17359800
 H	     2.87789400	     3.92640100	    -0.78562300
 H	     2.89761900	     3.78839200	     0.99360400
 H	     4.15471300	    -1.36966900	     0.00533400
 H	     3.20275400	    -4.29670500	     2.17670500
 H	     1.90784200	    -5.12669700	     1.29695500
 H	     3.54935100	    -5.79085000	     1.28208300
 H	     5.13990900	    -3.19958600	    -0.87873700
 H	     5.13649900	    -3.19754900	     0.89672200
 H	     5.37131300	    -4.71112400	     0.01115900
 H	     3.55439300	    -5.79332600	    -1.26485800
 H	     1.91280500	    -5.12957900	    -1.28699900
 H	     3.21071500	    -4.30104500	    -2.16370200
 H	     0.59033100	    -3.79140900	     0.00148300
 H	    -2.13296100	    -3.31317500	    -0.00112300
 H	    -6.93335900	    -2.52487300	    -0.02454200
 H	    -6.20343900	    -1.17395700	     0.85298400
 H	    -6.18497500	    -1.19726700	    -0.92279300
 H	    -5.60924900	    -4.14441300	     1.29142100
 H	    -4.77717400	    -2.84660100	     2.17260200
 H	    -3.83952000	    -4.08677400	     1.32337900
 H	    -4.74311200	    -2.92021200	    -2.16721900
 H	    -5.59390300	    -4.18423800	    -1.25557400
 H	    -3.82435500	    -4.13478700	    -1.26200400
 H	    -4.64402200	     0.18761500	    -0.01278000

