68
L160.xyz
 C	    -5.09551500	     3.86471200	     0.95116200
 C	    -4.35420000	     3.35311700	    -0.28305900
 C	    -2.87825000	     3.82531700	    -0.35440400
 O	    -2.11050300	     2.59765100	    -0.25002200
 C	    -3.02114400	     1.57507300	    -0.22380100
 C	    -2.45925800	     0.22445000	    -0.14825500
 C	    -1.07882000	    -0.02243800	    -0.12073100
 N	    -0.00621400	     0.84556800	    -0.15612200
 C	     1.16631700	     0.12791800	    -0.10067300
 C	     2.49439900	     0.58661700	    -0.10257900
 C	     2.77066800	     2.01917600	    -0.17349300
 N	     1.87634900	     2.93624400	    -0.27205100
 C	     2.57437100	     4.23467200	    -0.27906100
 C	     2.11048500	     5.10501300	     0.88677100
 C	     4.07660900	     3.85138900	    -0.21063200
 O	     4.07553900	     2.40011100	    -0.12749700
 C	     3.50590500	    -0.37715400	    -0.03159600
 C	     3.24203800	    -1.76040700	     0.03828100
 C	     4.42358000	    -2.74023200	     0.11023100
 C	     3.96038500	    -4.20378300	     0.18294300
 C	     5.30484800	    -2.57461400	    -1.14627200
 C	     5.26631300	    -2.43706100	     1.36741200
 C	     1.90807800	    -2.18776700	     0.03945400
 C	     0.86844500	    -1.25487100	    -0.02845100
 C	    -0.58129300	    -1.35659000	    -0.04168800
 C	    -1.46841400	    -2.42892800	     0.00698700
 C	    -2.85601600	    -2.20828400	    -0.02053100
 C	    -3.81175900	    -3.41014700	     0.03563500
 C	    -3.53746000	    -4.33770100	    -1.16717700
 C	    -5.28808000	    -2.98557000	    -0.01060800
 C	    -3.57355800	    -4.19082900	     1.34573800
 C	    -3.31777900	    -0.88674600	    -0.09639100
 N	    -4.26304600	     1.88065700	    -0.26225500
 H	    -4.56031000	     3.57895800	     1.86454900
 H	    -5.17854100	     4.95781300	     0.92554700
 H	    -6.10476600	     3.44203600	     0.99701700
 H	    -4.90171500	     3.65876300	    -1.18228800
 H	    -2.61823300	     4.30644800	    -1.30103700
 H	    -2.58745700	     4.47513200	     0.47587500
 H	    -0.03736100	     1.85672400	    -0.21264400
 H	     2.34836700	     4.74769900	    -1.22150100
 H	     1.03108100	     5.28174200	     0.82794000
 H	     2.32738900	     4.61215400	     1.84183000
 H	     2.62161600	     6.07492700	     0.87229100
 H	     4.58078700	     4.23827200	     0.67991200
 H	     4.64196100	     4.13773900	    -1.10107100
 H	     4.53217900	    -0.02913000	    -0.03173100
 H	     3.37895900	    -4.49142600	    -0.70056200
 H	     4.83429300	    -4.86306300	     0.23361000
 H	     3.34929800	    -4.39409700	     1.07269400
 H	     4.73135900	    -2.78703600	    -2.05626900
 H	     5.70542200	    -1.55873600	    -1.23091600
 H	     6.15495000	    -3.26701200	    -1.10989600
 H	     6.11567700	    -3.12821000	     1.43291900
 H	     4.66490700	    -2.54922100	     2.27727300
 H	     5.66608500	    -1.41748200	     1.35235000
 H	     1.66678600	    -3.24312800	     0.09372700
 H	    -1.07729800	    -3.44022700	     0.06695700
 H	    -4.20771800	    -5.20571300	    -1.14058600
 H	    -3.70210300	    -3.80918900	    -2.11355100
 H	    -2.50769000	    -4.71096300	    -1.16533800
 H	    -5.52827100	    -2.44610400	    -0.93387700
 H	    -5.92656200	    -3.87540700	     0.02995700
 H	    -5.55522500	    -2.34612500	     0.83837900
 H	    -2.54538200	    -4.56200400	     1.41598700
 H	    -4.24586800	    -5.05584100	     1.40225100
 H	    -3.76228600	    -3.55519800	     2.21889400
 H	    -4.37961800	    -0.67846800	    -0.11682100

