62
L161.xyz
 C	    -3.89172600	    -3.66145300	     1.25932700
 C	    -4.08854800	    -2.79059500	     0.00013200
 C	    -3.05295100	    -1.65551600	    -0.00001100
 C	    -3.42255000	    -0.30354700	    -0.00029100
 C	    -2.48949500	     0.74784700	    -0.00035800
 C	    -2.95597300	     2.13615000	    -0.00043900
 N	    -4.17356100	     2.52868800	     0.00421300
 C	    -4.15400000	     3.99899200	    -0.00323600
 C	    -2.65463400	     4.38044400	     0.00495600
 O	    -1.97552300	     3.09448900	    -0.00702000
 C	    -1.12959500	     0.40441900	    -0.00019300
 N	    -0.00000000	     1.19819200	    -0.00000500
 C	     1.12959500	     0.40441900	     0.00018900
 C	     2.48949500	     0.74784700	     0.00035500
 C	     2.95597300	     2.13615000	     0.00043600
 N	     4.17356000	     2.52868900	    -0.00423100
 C	     4.15399900	     3.99899300	     0.00323300
 C	     2.65463300	     4.38044400	    -0.00494900
 O	     1.97552200	     3.09448900	     0.00703800
 C	     3.42255000	    -0.30354700	     0.00029000
 C	     3.05295100	    -1.65551600	     0.00001000
 C	     4.08854800	    -2.79059500	    -0.00013000
 C	     3.89146400	    -3.66208600	     1.25858200
 C	     3.89173000	    -3.66145400	    -1.25932400
 C	     5.53222700	    -2.26376800	     0.00015500
 C	     1.68329700	    -1.97122000	    -0.00002900
 C	     0.72656000	    -0.96038100	     0.00007800
 C	    -0.72655900	    -0.96038100	    -0.00008200
 C	    -1.68329600	    -1.97122100	     0.00002600
 C	    -3.89146600	    -3.66208700	    -1.25858000
 C	    -5.53222600	    -2.26377000	    -0.00015000
 H	    -2.89062600	    -4.10459700	     1.29490800
 H	    -4.02900300	    -3.06719400	     2.17038900
 H	    -4.62060400	    -4.48111000	     1.27416900
 H	    -4.46775500	    -0.02293300	    -0.00054500
 H	    -4.68462100	     4.38481000	     0.87438500
 H	    -4.67238100	     4.37384700	    -0.89314200
 H	    -2.34280500	     4.91672500	     0.90480900
 H	    -2.33623700	     4.93700400	    -0.87988000
 H	    -0.00000000	     2.20727000	     0.00000500
 H	     4.68461600	     4.38482200	    -0.87438600
 H	     4.67238400	     4.37384000	     0.89314100
 H	     2.33624100	     4.93700900	     0.87988700
 H	     2.34279400	     4.91672000	    -0.90480200
 H	     4.46775500	    -0.02293100	     0.00054700
 H	     4.62027100	    -4.48180700	     1.27310900
 H	     2.89031800	    -4.10516300	     1.29378700
 H	     4.02865100	    -3.06830300	     2.16997000
 H	     4.62060700	    -4.48111000	    -1.27416400
 H	     2.89062900	    -4.10459700	    -1.29490800
 H	     4.02900900	    -3.06719600	    -2.17038700
 H	     5.74474800	    -1.65761100	     0.88810600
 H	     5.74481600	    -1.65684800	    -0.88725900
 H	     6.23036500	    -3.10852300	    -0.00016600
 H	     1.36093400	    -3.00803500	    -0.00005900
 H	    -1.36093400	    -3.00803500	     0.00005500
 H	    -4.02865700	    -3.06830600	    -2.16996700
 H	    -2.89032100	    -4.10516400	    -1.29378700
 H	    -4.62027300	    -4.48181000	    -1.27310400
 H	    -6.23036400	    -3.10852600	     0.00017400
 H	    -5.74481300	    -1.65684900	     0.88726400
 H	    -5.74475000	    -1.65761500	    -0.88810200

