99
L164.xyz
 C	    -0.42158400	    -4.90927000	    -2.35799500
 C	    -0.38524200	    -3.38224800	    -2.30579700
 C	    -0.26260500	    -2.79518900	    -0.87176300
 C	    -0.27451400	    -1.28187200	    -0.96380200
 O	     0.47338100	    -0.61974300	    -0.03956600
 N	    -0.99773700	    -0.59837300	    -1.76343800
 C	    -0.87660500	     0.80316200	    -1.30817100
 C	     0.32675500	     0.80497300	    -0.32289300
 C	    -0.10617500	     1.56250800	     0.93689600
 C	    -1.61587800	     1.53662200	     0.86330800
 C	    -2.04883200	     1.15503400	    -0.41193800
 C	    -3.40098500	     0.99298500	    -0.69150900
 C	    -4.34700600	     1.21395100	     0.32018600
 C	    -5.78802100	     0.92821900	     0.06917200
 C	    -6.72816700	     1.98009900	    -0.00339800
 C	    -6.35317600	     3.35542200	     0.13067800
 C	    -7.28728500	     4.35605200	     0.05613100
 C	    -8.66246100	     4.05273700	    -0.16189800
 C	    -9.06345800	     2.75151600	    -0.30968200
 C	    -8.12124900	     1.67782700	    -0.24178700
 C	    -8.51871300	     0.34773500	    -0.40879700
 C	    -7.59841700	    -0.70312600	    -0.34307500
 C	    -6.20475800	    -0.41437800	    -0.09264200
 C	    -5.29833100	    -1.52014200	     0.00411900
 C	    -5.73238400	    -2.81023600	    -0.15818200
 C	    -7.10405300	    -3.08870300	    -0.42534700
 C	    -8.00793500	    -2.06325700	    -0.51075900
 C	    -3.90915400	     1.62856900	     1.58958000
 C	    -2.54969400	     1.79243200	     1.86639100
 C	    -1.47946000	    -3.23145400	    -0.00215000
 C	    -1.69995000	    -2.45319200	     1.29803100
 C	     1.07352900	    -3.22298400	    -0.29132900
 O	     1.07101700	    -3.78276700	     0.94838300
 N	     2.19232500	    -3.07065900	    -0.88668700
 C	     3.22921600	    -3.45006000	     0.09041800
 C	     2.45420000	    -4.13367800	     1.25553800
 C	     2.90622500	    -3.47859700	     2.56881800
 C	     3.61469400	    -2.21947300	     2.12289100
 C	     3.82894100	    -2.21864900	     0.74071700
 C	     4.44319500	    -1.14181800	     0.11001500
 C	     4.87120000	    -0.04410400	     0.87276600
 C	     5.51392300	     1.12587100	     0.21014300
 C	     6.77151300	     0.97558800	    -0.42199200
 C	     7.49779500	    -0.25896100	    -0.41265500
 C	     8.71287300	    -0.37474700	    -1.03700500
 C	     9.29381700	     0.73675500	    -1.71255000
 C	     8.64429200	     1.94204900	    -1.73040300
 C	     7.37792100	     2.10657800	    -1.08685800
 C	     6.72353400	     3.34149900	    -1.08108900
 C	     5.48872300	     3.50946500	    -0.44830100
 C	     4.86145800	     2.38211900	     0.20413200
 C	     3.57952100	     2.59219600	     0.80927800
 C	     2.98357000	     3.82756200	     0.80125200
 C	     3.61520700	     4.93886600	     0.17291800
 C	     4.82945000	     4.77845900	    -0.43889300
 C	     4.67161300	    -0.06122500	     2.26474500
 C	     4.04399900	    -1.13892300	     2.89254400
 H	    -0.45748400	    -5.24524400	    -3.40049000
 H	    -1.29989700	    -5.31964500	    -1.84886100
 H	     0.47348800	    -5.34781700	    -1.90100300
 H	     0.46336000	    -3.01553100	    -2.89133500
 H	    -1.29132800	    -2.96452200	    -2.75437200
 H	    -0.75796500	     1.47944100	    -2.15928600
 H	     1.27364700	     1.15159300	    -0.74187300
 H	     0.29664300	     1.10207600	     1.84473300
 H	     0.27800900	     2.58885500	     0.89289900
 H	    -3.72486500	     0.64900000	    -1.66936900
 H	    -5.30844900	     3.59891300	     0.28884600
 H	    -6.97932900	     5.39288000	     0.15929500
 H	    -9.38763200	     4.85989000	    -0.21629900
 H	   -10.10841600	     2.50803700	    -0.48471600
 H	    -9.56722000	     0.12563100	    -0.59339200
 H	    -4.25307600	    -1.32606600	     0.21257900
 H	    -5.02553600	    -3.63170800	    -0.07854500
 H	    -7.42797900	    -4.11771000	    -0.55390100
 H	    -9.05877400	    -2.26279100	    -0.70521800
 H	    -4.64354600	     1.79170300	     2.37317800
 H	    -2.22833700	     2.08388500	     2.86308500
 H	    -2.36655500	    -3.12192700	    -0.63692100
 H	    -1.37322100	    -4.29662000	     0.22241400
 H	    -1.91509500	    -1.39709200	     1.10843900
 H	    -0.82774500	    -2.51001700	     1.95432700
 H	    -2.55844100	    -2.87215800	     1.83575000
 H	     3.98113000	    -4.09269700	    -0.37717700
 H	     2.51259300	    -5.22392200	     1.26902100
 H	     2.05649500	    -3.28665600	     3.23228100
 H	     3.58826600	    -4.15092500	     3.10518000
 H	     4.57224200	    -1.13466700	    -0.96831500
 H	     7.07453800	    -1.11197800	     0.10468800
 H	     9.24424500	    -1.32213400	    -1.01348500
 H	    10.25588300	     0.62353500	    -2.20431200
 H	     9.08061800	     2.80220200	    -2.23194300
 H	     7.18685200	     4.19104400	    -1.57727700
 H	     3.07977600	     1.75576100	     1.28360600
 H	     2.01833100	     3.96497900	     1.27991700
 H	     3.12535000	     5.90845600	     0.17754300
 H	     5.31964100	     5.61455800	    -0.93126500
 H	     5.00789500	     0.78591600	     2.85559800
 H	     3.88815900	    -1.12659400	     3.96827500

