123
L165.xyz
 C	     0.76022100	     4.04508800	     3.29311100
 C	     0.29202400	     4.49897200	     1.90947800
 C	     0.96691900	     3.83790900	     0.67874600
 C	     2.47830400	     4.01676600	     0.70819000
 O	     3.04304800	     4.81920700	    -0.23675900
 N	     3.25485200	     3.38126600	     1.49918900
 C	     4.61662600	     3.59035200	     0.97476000
 C	     4.48811700	     4.78439500	    -0.00971100
 C	     5.22124800	     4.40037800	    -1.30066400
 C	     5.26421500	     2.88999800	    -1.23629600
 C	     4.97070500	     2.43476400	     0.05348700
 C	     4.84044700	     1.07838700	     0.32518700
 C	     5.00490400	     0.14081900	    -0.70853700
 C	     4.71521100	    -1.29360900	    -0.46450200
 C	     5.02448700	    -1.89201400	     0.76574100
 C	     4.67900200	    -3.22058700	     1.03339100
 C	     4.99268500	    -3.90193800	     2.37373500
 C	     3.67059800	    -4.34069900	     3.03937800
 C	     5.87616800	    -5.14252900	     2.12407500
 C	     5.73383400	    -2.96939100	     3.34493600
 C	     4.01338400	    -3.94160000	     0.03219200
 C	     3.69131300	    -3.38164700	    -1.21155600
 C	     2.93325900	    -4.22299300	    -2.24974800
 C	     2.68624800	    -3.45534600	    -3.55851600
 C	     1.56458200	    -4.63688200	    -1.66717300
 C	     3.75259800	    -5.48866400	    -2.57941500
 C	     4.05520100	    -2.05164000	    -1.44399700
 C	     5.34954800	     0.60594000	    -1.99225700
 C	     5.48023500	     1.96928400	    -2.26089900
 C	     0.33535200	     4.37628700	    -0.64452900
 C	     0.23318400	     5.89711900	    -0.78207100
 C	     0.74469000	     2.33566600	     0.65831200
 O	     1.47552400	     1.68018900	    -0.28638600
 N	    -0.06639200	     1.65932400	     1.37420400
 C	     0.03312700	     0.26316500	     0.89333500
 C	     1.24934700	     0.25803300	    -0.07870500
 C	     0.81088500	    -0.42804800	    -1.37806400
 C	    -0.69533300	    -0.48897100	    -1.27118700
 C	    -1.13263500	    -0.13167200	     0.00984900
 C	    -2.48503200	    -0.12729100	     0.33269800
 C	    -3.43624400	    -0.49804300	    -0.63406500
 C	    -4.88399100	    -0.50574700	    -0.30813900
 C	    -5.83629200	    -0.12730500	    -1.27178100
 C	    -7.20060300	    -0.13117500	    -0.98200500
 C	    -8.26569000	     0.27963800	    -2.00969200
 C	    -9.06790900	     1.48028600	    -1.46413400
 C	    -7.65162200	     0.68425800	    -3.35927300
 C	    -9.22309100	    -0.90704500	    -2.25144800
 C	    -7.60355100	    -0.52192700	     0.30789300
 C	    -6.68826000	    -0.90122500	     1.29264700
 C	    -7.11823400	    -1.33256200	     2.70272400
 C	    -6.47506600	    -0.38756200	     3.74018500
 C	    -8.64299100	    -1.28848400	     2.89042900
 C	    -6.64041900	    -2.77711700	     2.96299300
 C	    -5.32475100	    -0.88853600	     0.96213500
 C	    -2.98489200	    -0.86286500	    -1.91735700
 C	    -1.62733200	    -0.85875400	    -2.24022300
 H	     1.82124400	     4.25827700	     3.44879000
 H	     0.18853400	     4.57858600	     4.06211000
 H	     0.60347500	     2.97276300	     3.43312400
 H	    -0.78532600	     4.32208500	     1.81069800
 H	     0.44508600	     5.57945000	     1.82178600
 H	     5.33572200	     3.75016800	     1.78289800
 H	     4.77810300	     5.75639500	     0.39574300
 H	     6.22856900	     4.83792300	    -1.29369600
 H	     4.70717900	     4.78450300	    -2.18764800
 H	     4.52582800	     0.75176600	     1.31143900
 H	     5.54919700	    -1.30420400	     1.50894400
 H	     3.02283300	    -3.47629400	     3.22762300
 H	     3.87205200	    -4.83067400	     3.99989900
 H	     3.11489900	    -5.04702400	     2.41351400
 H	     5.38019200	    -5.87105200	     1.47402900
 H	     6.10691900	    -5.64279400	     3.07264100
 H	     6.82318800	    -4.85864300	     1.65005200
 H	     5.93402300	    -3.50019200	     4.28260300
 H	     5.14157100	    -2.07970500	     3.58752300
 H	     6.69650400	    -2.63933100	     2.93807300
 H	     3.73205300	    -4.97061600	     0.22986600
 H	     2.06767900	    -2.56492500	    -3.39966600
 H	     3.62453500	    -3.14071600	    -4.02951900
 H	     2.15807900	    -4.10198200	    -4.26838600
 H	     0.95450600	    -3.75643500	    -1.43272700
 H	     1.01184400	    -5.24839600	    -2.39094900
 H	     1.67522100	    -5.22257800	    -0.74850700
 H	     3.22402700	    -6.10184500	    -3.31952400
 H	     3.92086600	    -6.10766100	    -1.69197000
 H	     4.73188000	    -5.22271100	    -2.99467700
 H	     3.79418600	    -1.57181700	    -2.37879800
 H	     5.50246300	    -0.11211000	    -2.79266500
 H	     5.71776400	     2.30416600	    -3.26752800
 H	    -0.67086900	     3.94442000	    -0.70873800
 H	     0.90605200	     3.96701900	    -1.48304300
 H	    -0.13217800	     6.14561000	    -1.78555900
 H	    -0.47100700	     6.32850000	    -0.06366500
 H	     1.20418600	     6.38156700	    -0.64924300
 H	     0.15384500	    -0.41094200	     1.74687200
 H	     2.16753900	    -0.15529300	     0.34018700
 H	     1.24737800	    -1.43214600	    -1.42841200
 H	     1.16727400	     0.11984700	    -2.25706000
 H	    -2.80843000	     0.19217300	     1.31911000
 H	    -5.48607400	     0.19390900	    -2.24502200
 H	    -8.41054300	     2.33874100	    -1.28248000
 H	    -9.57248700	     1.23818300	    -0.52282400
 H	    -9.83504700	     1.78557100	    -2.18639200
 H	    -6.98133600	     1.54564700	    -3.26010100
 H	    -7.08702200	    -0.13840100	    -3.81284000
 H	    -8.44965700	     0.96326900	    -4.05673200
 H	    -9.72999100	    -1.21529800	    -1.33097300
 H	    -9.99380000	    -0.63158900	    -2.98185800
 H	    -8.67857700	    -1.77481200	    -2.64218400
 H	    -8.66134400	    -0.52535200	     0.53911500
 H	    -5.38148400	    -0.41000000	     3.68645400
 H	    -6.76695600	    -0.68132500	     4.75599400
 H	    -6.79835000	     0.64760400	     3.57887300
 H	    -8.89641900	    -1.60233200	     3.90943000
 H	    -9.04250200	    -0.27820600	     2.74555300
 H	    -9.15857800	    -1.96325400	     2.19747700
 H	    -6.93764900	    -3.10095700	     3.96806300
 H	    -5.55107800	    -2.86398700	     2.89247500
 H	    -7.08113200	    -3.47118200	     2.23755400
 H	    -4.59086500	    -1.20240600	     1.69719500
 H	    -3.70883900	    -1.17311300	    -2.66502100
 H	    -1.30512100	    -1.14694400	    -3.23784800

