93
L166.xyz
 C	     1.25060700	     4.68645200	     0.20367500
 C	    -0.00019100	     3.81412400	    -0.00028900
 C	     0.19044300	     2.89735100	    -1.19277100
 O	    -0.86449200	     2.07408300	    -1.46464500
 N	     1.23975300	     2.79575600	    -1.90840700
 C	     1.01038900	     1.63030100	    -2.78775100
 C	    -0.50822700	     1.31648500	    -2.66349500
 C	    -0.65318200	    -0.19247300	    -2.42528400
 C	     0.72074500	    -0.60813800	    -1.95343500
 C	     1.66041000	     0.40272800	    -2.17931300
 C	     2.96933200	     0.28258000	    -1.72656400
 C	     3.35369800	    -0.86855600	    -1.02419100
 C	     4.69715900	    -0.94631500	    -0.38557300
 C	     5.64876800	    -1.89768500	    -0.81718000
 C	     5.40514400	    -2.78436700	    -1.91478500
 C	     6.34668100	    -3.69833500	    -2.31184800
 C	     7.60097200	    -3.78872000	    -1.64167200
 C	     7.88232600	    -2.94977500	    -0.59635400
 C	     6.92981400	    -1.97947200	    -0.15308800
 C	     7.21493700	    -1.10907300	     0.90315900
 C	     6.28668700	    -0.15670100	     1.33550600
 C	     4.99946000	    -0.06856600	     0.68421800
 C	     4.06619000	     0.90130400	     1.17725700
 C	     4.38632800	     1.72808300	     2.22307000
 C	     5.66116100	     1.64598700	     2.85341800
 C	     6.58091400	     0.72809600	     2.42025700
 C	     2.41995900	    -1.90548400	    -0.84742500
 C	     1.10923800	    -1.78469600	    -1.31460000
 C	    -1.25111200	     4.68621000	    -0.20449200
 C	    -0.19070200	     2.89763500	     1.19243800
 O	     0.86432000	     2.07453900	     1.46448700
 N	    -1.24000700	     2.79609400	     1.90808700
 C	    -1.01055400	     1.63082100	     2.78765900
 C	     0.50809300	     1.31710400	     2.66347000
 C	     0.65316000	    -0.19187400	     2.42549200
 C	    -0.72071400	    -0.60769700	     1.95364400
 C	    -1.66047200	     0.40310700	     2.17941400
 C	    -2.96938900	     0.28278600	     1.72668700
 C	    -3.35363400	    -0.86843700	     1.02439300
 C	    -4.69707200	    -0.94634500	     0.38571700
 C	    -5.64864200	    -1.89780300	     0.81726000
 C	    -5.40504400	    -2.78447900	     1.91488300
 C	    -6.34653800	    -3.69853000	     2.31186200
 C	    -7.60077300	    -3.78899000	     1.64159800
 C	    -7.88211500	    -2.95004800	     0.59627800
 C	    -6.92963900	    -1.97968000	     0.15308000
 C	    -7.21475600	    -1.10929800	    -0.90318000
 C	    -6.28656000	    -0.15684500	    -1.33545000
 C	    -4.99938200	    -0.06860300	    -0.68407700
 C	    -4.06617200	     0.90136400	    -1.17705100
 C	    -4.38633300	     1.72814500	    -2.22285500
 C	    -5.66112000	     1.64593700	    -2.85328500
 C	    -6.58080200	     0.72794000	    -2.42020600
 C	    -2.41977500	    -1.90526300	     0.84766400
 C	    -1.10908300	    -1.78433400	     1.31488600
 H	     1.39747000	     5.33766700	    -0.66267200
 H	     2.14616200	     4.07517200	     0.33005900
 H	     1.11815900	     5.31206000	     1.09252400
 H	     1.34081200	     1.84130800	    -3.80860800
 H	    -1.12804100	     1.69360900	    -3.47937700
 H	    -0.92818400	    -0.68680300	    -3.36620200
 H	    -1.44137900	    -0.41751100	    -1.70094000
 H	     3.67529400	     1.09677400	    -1.85932000
 H	     4.45855700	    -2.71860200	    -2.43943100
 H	     6.14015300	    -4.35880400	    -3.14946700
 H	     8.33312300	    -4.52100400	    -1.97025700
 H	     8.83898200	    -3.00236600	    -0.08265400
 H	     8.17999400	    -1.17472300	     1.40022700
 H	     3.09221600	     0.98787300	     0.71362600
 H	     3.65856700	     2.45476700	     2.57291900
 H	     5.89717100	     2.31154900	     3.67907900
 H	     7.55570500	     0.65052000	     2.89529100
 H	     2.71968500	    -2.79852500	    -0.30640500
 H	     0.39419700	    -2.58350400	    -1.14380000
 H	    -1.39808200	     5.33760700	     0.66169800
 H	    -2.14657600	     4.07476600	    -0.33074300
 H	    -1.11874300	     5.31162300	    -1.09349000
 H	    -1.34101100	     1.84199700	     3.80847100
 H	     1.12788800	     1.69439200	     3.47928700
 H	     1.44139400	    -0.41697200	     1.70121400
 H	     0.92816000	    -0.68604400	     3.36649600
 H	    -3.67544200	     1.09691000	     1.85938700
 H	    -4.45850900	    -2.71864900	     2.43960600
 H	    -6.14002000	    -4.35901600	     3.14947000
 H	    -8.33290700	    -4.52131200	     1.97013800
 H	    -8.83874100	    -3.00269400	     0.08252800
 H	    -8.17977900	    -1.17501300	    -1.40030700
 H	    -3.09222800	     0.98800700	    -0.71336400
 H	    -3.65863300	     2.45492300	    -2.57263300
 H	    -5.89713800	     2.31147900	    -3.67896000
 H	    -7.55555000	     0.65027300	    -2.89531500
 H	    -2.71938700	    -2.79834600	     0.30665400
 H	    -0.39396000	    -2.58308100	     1.14414400

