87
L167.xyz
 C	     0.38431000	     3.33073200	     1.51742300
 C	     0.03063500	     3.06320200	     0.04030500
 C	    -1.42712900	     3.37102100	    -0.25040900
 O	    -2.06586200	     4.21265600	     0.60406800
 N	    -2.07910700	     2.88432700	    -1.23377700
 C	    -3.47672400	     3.31289100	    -1.04029600
 C	    -3.41562100	     4.40065400	     0.07172000
 C	    -4.47273200	     4.04759900	     1.12730000
 C	    -4.79767600	     2.59834000	     0.84013400
 C	    -4.27274900	     2.19719100	    -0.39255500
 C	    -4.40090600	     0.88513700	    -0.83654800
 C	    -5.07807700	    -0.05018000	    -0.04167700
 C	    -5.17559900	    -1.47338800	    -0.47748000
 C	    -4.41635900	    -2.47259700	     0.21752400
 C	    -3.55764000	    -2.16104400	     1.31012100
 C	    -2.85495600	    -3.14902000	     1.96602700
 C	    -2.95794700	    -4.50075300	     1.55744500
 C	    -3.76376500	    -4.83445800	     0.49245300
 C	    -4.50650600	    -3.84125000	    -0.20064800
 C	    -5.33864600	    -4.16824200	    -1.30166500
 C	    -6.04886000	    -3.18964300	    -1.95355900
 C	    -5.98208100	    -1.82782700	    -1.55362900
 C	    -6.79917700	    -0.80609300	    -2.30832400
 C	    -5.62894300	     0.36541400	     1.18345800
 C	    -5.49284600	     1.68215400	     1.62879700
 C	     0.91581700	     3.91609900	    -0.88684000
 C	     0.21885800	     1.59048100	    -0.25205300
 O	    -0.51768600	     0.75709300	     0.53381500
 N	     0.99408400	     1.08170300	    -1.12667700
 C	     0.88513800	    -0.38397300	    -0.96362300
 C	    -0.29128800	    -0.59486700	     0.03793900
 C	     0.20982000	    -1.51792800	     1.15823300
 C	     1.71113000	    -1.53276400	     0.98122500
 C	     2.08666500	    -0.94022300	    -0.22914800
 C	     3.42492500	    -0.84281300	    -0.59705000
 C	     4.41670200	    -1.34558600	     0.25865700
 C	     5.85881500	    -1.22360100	    -0.10269300
 C	     6.60284900	    -2.35489700	    -0.42200000
 C	     5.99402600	    -3.73736900	    -0.42639500
 C	     7.97362000	    -2.21117100	    -0.76709600
 C	     8.58455500	    -0.98126500	    -0.79705400
 C	     7.85532900	     0.19254900	    -0.47796500
 C	     6.47142200	     0.07384900	    -0.12174900
 C	     5.76331200	     1.26208900	     0.21660800
 C	     6.38246700	     2.49250100	     0.18606300
 C	     7.74540400	     2.60543300	    -0.18003700
 C	     8.46380300	     1.47624800	    -0.50154900
 C	     4.03225900	    -1.94654600	     1.46942000
 C	     2.68791400	    -2.04487000	     1.83466100
 H	     1.42459900	     3.04071500	     1.69809900
 H	    -0.25772900	     2.76090100	     2.19336000
 H	     0.27511400	     4.39403800	     1.74588900
 H	    -3.91014600	     3.66407500	    -1.98121300
 H	    -3.47830200	     5.43035400	    -0.28618600
 H	    -5.35346300	     4.68994300	     0.99743000
 H	    -4.09821500	     4.21597200	     2.14238100
 H	    -3.94727400	     0.57366000	    -1.77304300
 H	    -3.45729300	    -1.12896200	     1.62632300
 H	    -2.21316500	    -2.88828200	     2.80256800
 H	    -2.39727900	    -5.26875900	     2.08295200
 H	    -3.84620300	    -5.86724000	     0.16265100
 H	    -5.40830100	    -5.20600700	    -1.61800200
 H	    -6.68893200	    -3.45293400	    -2.79185700
 H	    -7.61302500	    -1.29167700	    -2.85645100
 H	    -7.23310100	    -0.05800000	    -1.63766000
 H	    -6.18881600	    -0.26310900	    -3.04135100
 H	    -6.15299100	    -0.36064700	     1.79864700
 H	    -5.90855300	     1.97821200	     2.58862300
 H	     1.97177300	     3.69373000	    -0.70735100
 H	     0.74161500	     4.97855600	    -0.68741800
 H	     0.69095400	     3.71157200	    -1.93636900
 H	     0.72437800	    -0.85638900	    -1.93722600
 H	    -1.22661700	    -0.92943600	    -0.41441300
 H	    -0.21625700	    -2.52021000	     1.03055200
 H	    -0.10961600	    -1.15886600	     2.14223200
 H	     3.70716300	    -0.36090900	    -1.52884800
 H	     5.93957500	    -4.15900200	     0.58548600
 H	     4.97472600	    -3.73081600	    -0.82463700
 H	     6.59649600	    -4.42145500	    -1.03279100
 H	     8.54028300	    -3.10325100	    -1.02202000
 H	     9.63300600	    -0.89100400	    -1.07016900
 H	     4.71990500	     1.19289700	     0.50283200
 H	     5.82049900	     3.38498000	     0.44782800
 H	     8.22049400	     3.58229600	    -0.20131600
 H	     9.51300300	     1.54708400	    -0.77813500
 H	     4.80095800	    -2.32592800	     2.13671500
 H	     2.41299000	    -2.50360400	     2.78118900

