89
L168.xyz
 C	     0.30809400	    -5.04539800	    -0.04586900
 C	     0.81270800	    -3.83756100	    -0.85357100
 C	     0.31610000	    -3.89567600	    -2.30330100
 C	     2.33001400	    -3.70564300	    -0.81875600
 N	     2.98608400	    -2.89673600	    -1.55844000
 C	     4.30363800	    -2.74791500	    -0.91166900
 C	     4.36978100	    -3.89299400	     0.14245400
 C	     4.76601100	    -3.26744000	     1.48802700
 C	     4.49391300	    -1.79285300	     1.29222300
 C	     4.28647100	    -1.49184300	    -0.05740000
 C	     3.97489700	    -0.19810600	    -0.46435100
 C	     3.88825500	     0.82949700	     0.48845200
 C	     4.11455900	     0.52195700	     1.84144400
 C	     4.41388500	    -0.78013500	     2.24812000
 C	     3.55441300	     2.21675000	     0.06065300
 C	     2.37455300	     2.82211200	     0.49379700
 C	     2.01768000	     4.12200300	     0.05378300
 C	     2.83827500	     4.81060500	    -0.80838700
 C	     4.05452700	     4.25021100	    -1.26643100
 C	     4.42163200	     2.93597900	    -0.82093200
 C	     5.66819000	     2.40848300	    -1.26792500
 C	     6.48112400	     3.12451000	    -2.11789700
 C	     6.10232000	     4.41195300	    -2.57159400
 C	     4.91431100	     4.96037500	    -2.14725000
 O	     1.58029600	     2.09741400	     1.33640500
 C	     0.35335400	     2.67070500	     1.78174800
 O	     2.98102400	    -4.34450000	     0.18569500
 C	     0.38074600	    -2.53659900	    -0.19466600
 N	    -0.25653600	    -1.57524700	    -0.73576000
 C	    -0.29912400	    -0.49057300	     0.27059600
 C	     0.54288700	    -1.01723000	     1.47360500
 C	    -0.34762100	    -0.98030800	     2.72879000
 C	    -1.71126000	    -0.57622700	     2.21345100
 C	    -1.67888400	    -0.27667300	     0.84768400
 C	    -2.82625000	     0.13401000	     0.17537600
 C	    -4.03765500	     0.24857100	     0.87353200
 C	    -4.06130000	    -0.04920300	     2.24749500
 C	    -2.90905900	    -0.45841200	     2.91973000
 C	    -5.27849600	     0.66652700	     0.16407900
 C	    -5.83278500	    -0.13754400	    -0.87991000
 C	    -5.27195700	    -1.39116700	    -1.26251800
 C	    -5.83157000	    -2.14211800	    -2.27183700
 C	    -6.98628700	    -1.69124200	    -2.95797500
 C	    -7.56321800	    -0.49314500	    -2.60566600
 C	    -7.01332800	     0.30531300	    -1.56660100
 C	    -7.60619400	     1.53229800	    -1.18337700
 C	    -7.07423800	     2.29553600	    -0.17011200
 C	    -5.90583600	     1.86387600	     0.50803600
 O	    -5.32475400	     2.59199000	     1.50365500
 C	    -5.93326600	     3.81548400	     1.90155500
 O	     0.84199500	    -2.38546800	     1.07784300
 H	     0.63523500	    -4.99790400	     0.99430300
 H	    -0.78644000	    -5.06697300	    -0.06874500
 H	     0.68029800	    -5.97592200	    -0.48617900
 H	    -0.77722600	    -3.87305200	    -2.32518300
 H	     0.65761400	    -4.82381300	    -2.77315700
 H	     0.69383000	    -3.04942900	    -2.87987000
 H	     5.11312300	    -2.76661800	    -1.64681800
 H	     4.98213000	    -4.75089400	    -0.14239000
 H	     4.19814800	    -3.70795600	     2.31375500
 H	     5.82907200	    -3.45591600	     1.68799200
 H	     3.77299300	     0.01577600	    -1.50967000
 H	     4.04252500	     1.31377300	     2.58067800
 H	     4.57041900	    -0.99842800	     3.30156400
 H	     1.09158500	     4.57463400	     0.38559500
 H	     2.55560000	     5.80387300	    -1.14741200
 H	     5.97993100	     1.42879500	    -0.92468000
 H	     7.42727100	     2.69886800	    -2.44138600
 H	     6.75318700	     4.96245900	    -3.24498100
 H	     4.61196100	     5.95163100	    -2.47652000
 H	    -0.10131700	     1.92917600	     2.43875600
 H	    -0.32604100	     2.87385200	     0.94601800
 H	     0.52574100	     3.59439800	     2.34726700
 H	     0.11558900	     0.41914700	    -0.17258700
 H	     1.49566300	    -0.50735300	     1.60494700
 H	     0.04006700	    -0.25216500	     3.45187800
 H	    -0.35301900	    -1.95465700	     3.23007300
 H	    -2.79022300	     0.35829100	    -0.88698600
 H	    -4.99798900	     0.04054500	     2.78907300
 H	    -2.95118500	    -0.68702900	     3.98186600
 H	    -4.39178000	    -1.75642300	    -0.74592300
 H	    -5.38382700	    -3.09436800	    -2.54333400
 H	    -7.41378300	    -2.29479800	    -3.75365700
 H	    -8.45476800	    -0.13564600	    -3.11539100
 H	    -8.49891100	     1.86987200	    -1.70352200
 H	    -7.54775500	     3.23200200	     0.09892400
 H	    -5.30917600	     4.20618700	     2.70788000
 H	    -6.95134900	     3.65764200	     2.27851400
 H	    -5.95656100	     4.54232800	     1.08010400

