58
L17.xyz
 C	    -4.81521700	    -1.49995200	     0.10081500
 C	    -3.56954900	    -2.35511800	    -0.15279700
 C	    -3.88953100	    -3.84180300	     0.04222800
 C	    -2.40005600	    -1.92303800	     0.75903100
 C	    -1.03440300	    -2.54288500	     0.35808700
 N	    -0.39881400	    -1.41717400	    -0.33778300
 C	     0.82002400	    -1.50157800	    -1.02889200
 C	     1.77591500	    -2.45614200	    -0.65147800
 C	     3.00529300	    -2.50892700	    -1.30612200
 C	     3.30056900	    -1.61693100	    -2.33899500
 C	     2.33824900	    -0.68193400	    -2.72969600
 C	     1.09861400	    -0.63178100	    -2.09603900
 C	    -1.09054600	    -0.27580500	     0.03276400
 C	    -0.54276500	     1.08073000	    -0.23913000
 N	    -1.18094400	     1.95628900	    -0.93212800
 C	    -0.32824800	     3.16998300	    -0.97058300
 C	    -0.95718700	     4.31352500	    -0.14139600
 C	    -1.14912500	     3.93732500	     1.33264500
 C	    -2.28083700	     4.76748600	    -0.76637600
 C	     1.06099800	     2.70474500	    -0.45926500
 N	     0.71846500	     1.44232900	     0.20578000
 C	     1.61152500	     0.68759400	     0.98276500
 C	     2.98413100	     0.71080000	     0.69468100
 C	     3.86566700	    -0.07357300	     1.43658800
 C	     3.39672900	    -0.88868900	     2.46892400
 C	     2.03211100	    -0.89339200	     2.76967500
 C	     1.14359500	    -0.09898100	     2.04803100
 N	    -2.18545100	    -0.45575200	     0.68261300
 H	    -5.15595900	    -1.60669700	     1.13952400
 H	    -4.61259900	    -0.44063100	    -0.07862200
 H	    -5.63758400	    -1.81271000	    -0.55369800
 H	    -3.24524700	    -2.19730000	    -1.19200100
 H	    -3.02591200	    -4.48643800	    -0.15725800
 H	    -4.22090900	    -4.03435700	     1.07121500
 H	    -4.69629900	    -4.15407000	    -0.63116300
 H	    -2.65570900	    -2.18243600	     1.79237700
 H	    -1.11467800	    -3.40325700	    -0.31015600
 H	    -0.44328200	    -2.83119200	     1.23694300
 H	     1.57033600	    -3.13265700	     0.17025600
 H	     3.74094700	    -3.24503800	    -0.99395400
 H	     4.26294800	    -1.65656000	    -2.84071700
 H	     2.54350500	     0.00345400	    -3.54762100
 H	     0.34490000	     0.07420700	    -2.42686000
 H	    -0.25632800	     3.50833300	    -2.00915500
 H	    -0.24458900	     5.14965900	    -0.19524700
 H	    -1.55738700	     4.78713300	     1.89215300
 H	    -1.85165100	     3.10250700	     1.43291000
 H	    -0.20751200	     3.64678000	     1.81212200
 H	    -2.70099300	     5.61766500	    -0.21601800
 H	    -3.01596600	     3.95537600	    -0.74952100
 H	    -2.14423600	     5.07589500	    -1.81041700
 H	     1.52487200	     3.39789900	     0.24791900
 H	     1.75896000	     2.52462400	    -1.28679100
 H	     3.35474500	     1.31508600	    -0.12568100
 H	     4.92464800	    -0.05557500	     1.19422300
 H	     4.08642500	    -1.50422800	     3.03898000
 H	     1.65494200	    -1.50398500	     3.58565200
 H	     0.09107700	    -0.08128200	     2.30843000

