93
L171.xyz
 C	    -0.32716900	    -4.54142600	    -1.17336300
 C	     0.58347300	    -3.37949000	    -1.61952600
 C	     0.41122900	    -2.22105500	    -0.65016800
 O	     0.86903600	    -2.46413200	     0.60864300
 N	    -0.11186500	    -1.08408000	    -0.89998100
 C	    -0.12882900	    -0.35284100	     0.38693300
 C	     0.72978500	    -1.21907300	     1.35445300
 C	    -0.08501400	    -1.43724400	     2.63758000
 C	    -1.48426900	    -1.00280800	     2.26292300
 C	    -1.50405800	    -0.36244200	     1.01967400
 C	    -2.69046400	     0.12822800	     0.48266400
 C	    -3.88937900	    -0.01791800	     1.19787900
 C	    -5.15258800	     0.54633700	     0.65100500
 C	    -6.33446900	    -0.27366600	     0.45758900
 C	    -6.31199500	    -1.66895100	     0.69835100
 C	    -7.43596700	    -2.45057700	     0.51133100
 C	    -8.63174800	    -1.85975700	     0.06715200
 C	    -8.67558900	    -0.50373700	    -0.19884400
 C	    -7.54152400	     0.32367200	    -0.02347700
 C	    -7.57062100	     1.74500300	    -0.33740100
 C	    -8.72606200	     2.41354800	    -0.80547900
 C	    -8.70244600	     3.76446400	    -1.10480000
 C	    -7.51819900	     4.51031900	    -0.94746100
 C	    -6.37544900	     3.88566600	    -0.48803600
 C	    -6.37723200	     2.50538700	    -0.17646600
 C	    -5.19475800	     1.87248600	     0.31993800
 C	    -3.86021600	    -0.65859700	     2.45135800
 C	    -2.66830300	    -1.14921600	     2.98583200
 C	     0.23583600	    -2.93240100	    -3.04538200
 C	     2.05559200	    -3.74735200	    -1.53218100
 O	     2.39155200	    -4.71509400	    -0.64144200
 N	     2.98993200	    -3.12631400	    -2.14256200
 C	     4.24595300	    -3.56252900	    -1.49703800
 C	     3.84975800	    -4.79277700	    -0.62772100
 C	     4.37918200	    -4.54868300	     0.79356000
 C	     4.62335700	    -3.05677800	     0.82862800
 C	     4.62200100	    -2.51938500	    -0.46271000
 C	     4.75267400	    -1.15341300	    -0.67572400
 C	     4.86266200	    -0.28712400	     0.42328700
 C	     4.90803000	     1.18538000	     0.22897200
 C	     5.92279700	     1.91078500	     0.78805700
 C	     6.03963200	     3.32634200	     0.62011000
 C	     7.11944700	     4.03153000	     1.20236600
 C	     7.25322800	     5.39489300	     1.02749800
 C	     6.30370400	     6.09277600	     0.25644200
 C	     5.23984700	     5.42250100	    -0.32164000
 C	     5.07323900	     4.02751100	    -0.15676300
 C	     3.96372500	     3.28181900	    -0.73449900
 C	     3.87647900	     1.86828700	    -0.53476000
 C	     2.75840900	     1.17468000	    -1.06127400
 C	     1.77874900	     1.82649900	    -1.78619000
 C	     1.87752000	     3.21147600	    -2.00458000
 C	     2.94499500	     3.91864000	    -1.48241900
 C	     4.89532400	    -0.83525700	     1.71866300
 C	     4.78462500	    -2.21307200	     1.92686800
 H	    -1.37326800	    -4.22338200	    -1.22627000
 H	    -0.10659900	    -4.85367000	    -0.15085900
 H	    -0.19187000	    -5.40070200	    -1.83801200
 H	     0.26227300	     0.65694300	     0.24102200
 H	     1.73835400	    -0.84205500	     1.53449900
 H	     0.31874700	    -0.81600900	     3.44722800
 H	    -0.02694100	    -2.47834800	     2.97248400
 H	    -2.69925100	     0.60109100	    -0.49519300
 H	    -5.38815800	    -2.13133700	     1.02526500
 H	    -7.39176600	    -3.51933100	     0.70104500
 H	    -9.51978900	    -2.46810400	    -0.07960800
 H	    -9.60377200	    -0.07504000	    -0.55879600
 H	    -9.65439000	     1.86934500	    -0.93662800
 H	    -9.60520000	     4.25124100	    -1.46308100
 H	    -7.50651400	     5.57041800	    -1.18441700
 H	    -5.45343700	     4.44635400	    -0.35637700
 H	    -4.31087700	     2.48808300	     0.46430600
 H	    -4.78263400	    -0.76068700	     3.01522200
 H	    -2.66905100	    -1.63789900	     3.95682400
 H	     0.87956300	    -2.11123100	    -3.36651400
 H	     0.36696300	    -3.77129900	    -3.73619900
 H	    -0.80443500	    -2.59934400	    -3.08854700
 H	     5.02478900	    -3.76301800	    -2.23763200
 H	     4.12818200	    -5.76398300	    -1.04163300
 H	     3.66488700	    -4.89031200	     1.54920600
 H	     5.30923900	    -5.11230100	     0.94509500
 H	     4.71829200	    -0.75276300	    -1.68372000
 H	     6.69419200	     1.40028600	     1.35875500
 H	     7.84605600	     3.47602700	     1.78999300
 H	     8.08590600	     5.92679700	     1.47896900
 H	     6.40566100	     7.16469800	     0.11195400
 H	     4.52862700	     5.98968500	    -0.91109900
 H	     2.66277000	     0.10914900	    -0.89544000
 H	     0.93661900	     1.26070800	    -2.17417100
 H	     1.11212200	     3.73079400	    -2.57444600
 H	     2.98975300	     4.98869500	    -1.64958700
 H	     4.97108800	    -0.16589300	     2.57088800
 H	     4.78325300	    -2.61100400	     2.93840300

