64
L21.xyz
 C	    -3.26054100	    -2.25733400	     3.85034300
 C	    -3.02294200	    -0.90124400	     3.17620900
 C	    -3.64659100	    -0.85270600	     1.77753500
 C	    -1.52367700	    -0.55432300	     3.18569800
 C	    -0.60243800	    -1.53140100	     2.41560000
 N	     0.36796200	    -0.60600700	     1.80405400
 C	     1.47083100	    -1.03609900	     1.06273000
 C	     2.57062400	    -0.18761200	     0.83092000
 C	     3.64792800	    -0.62721500	     0.07524700
 C	     3.66904600	    -1.92708200	    -0.44270700
 C	     4.86591800	    -2.40763300	    -1.19959300
 F	     4.57290800	    -3.43763600	    -2.02743900
 F	     5.41619100	    -1.42896600	    -1.95829500
 F	     5.85447000	    -2.84740800	    -0.37664900
 C	     2.59969400	    -2.78699400	    -0.18421800
 C	     1.50784500	    -2.35002200	     0.55928200
 C	    -0.20393300	     0.66308300	     1.86763400
 C	     0.27613000	     1.83656400	     1.07658500
 N	     1.15961000	     2.67211100	     1.48743400
 C	     1.31200700	     3.69309400	     0.41721100
 C	     2.65505200	     3.50275800	    -0.32302200
 C	     2.85629300	     4.58919500	    -1.38616300
 C	     3.83360200	     3.50263900	     0.65683800
 C	     0.06626200	     3.49689400	    -0.48880400
 N	    -0.32410300	     2.12322400	    -0.14021800
 C	    -1.38676700	     1.41850500	    -0.73085000
 C	    -1.26028900	     0.04048500	    -0.96751300
 C	    -2.32750600	    -0.68065700	    -1.48608900
 C	    -3.52315700	    -0.02919400	    -1.80212300
 C	    -4.70605400	    -0.83598700	    -2.23436100
 F	    -5.61282500	    -0.10554000	    -2.92120100
 F	    -4.35612900	    -1.88264300	    -3.01901100
 F	    -5.36429100	    -1.36541400	    -1.16750900
 C	    -3.63519900	     1.35157100	    -1.62140600
 C	    -2.57037000	     2.07629900	    -1.09434500
 N	    -1.26204400	     0.77201300	     2.58336000
 H	    -2.80762500	    -3.07371900	     3.27290000
 H	    -2.83565300	    -2.28447700	     4.86140100
 H	    -4.33320100	    -2.46852900	     3.92988000
 H	    -3.50764400	    -0.12506800	     3.78380900
 H	    -3.25257400	    -1.64073400	     1.12651100
 H	    -3.45726300	     0.11012100	     1.29401400
 H	    -4.73149400	    -0.99615300	     1.84068000
 H	    -1.20075600	    -0.50317600	     4.23508300
 H	    -0.09124000	    -2.24960300	     3.05948800
 H	    -1.14389600	    -2.07880600	     1.63383800
 H	     2.58068700	     0.80594700	     1.25642400
 H	     4.48379900	     0.04347500	    -0.09688800
 H	     2.60910100	    -3.79973000	    -0.57288200
 H	     0.68239200	    -3.02895900	     0.73708600
 H	     1.30652100	     4.68783900	     0.87548400
 H	     2.61386200	     2.52350700	    -0.82214200
 H	     2.88464700	     5.58410200	    -0.92263000
 H	     3.80681100	     4.43973500	    -1.91139200
 H	     2.06147500	     4.59305900	    -2.14004400
 H	     3.72812300	     2.72912300	     1.42209600
 H	     3.90907900	     4.47027000	     1.17075200
 H	     4.77709800	     3.33497400	     0.12383400
 H	     0.27481800	     3.56909600	    -1.55794900
 H	    -0.73329400	     4.20328000	    -0.23362100
 H	    -0.32113200	    -0.45674800	    -0.75818000
 H	    -2.22680500	    -1.74790000	    -1.65404900
 H	    -4.55905900	     1.86048300	    -1.87440200
 H	    -2.67026700	     3.14417600	    -0.93440100

