82
L25.xyz
 C	    -3.26234000	     5.12772600	    -0.36018900
 C	    -2.24191700	     4.81996500	     0.74514400
 C	    -1.00282400	     5.71604600	     0.60967300
 C	    -1.89771400	     3.31859000	     0.81455200
 C	    -1.13531300	     2.74815000	    -0.39199700
 C	     0.41467300	     2.90995900	    -0.32455300
 N	     0.89357200	     1.52424100	    -0.42343800
 C	     2.14492200	     1.17376200	     0.16822500
 C	     2.21024900	     0.77239100	     1.50523200
 C	     3.44019500	     0.41394200	     2.05533500
 C	     4.59887400	     0.45259400	     1.27728200
 C	     4.54673900	     0.86087500	    -0.06306000
 C	     5.79424800	     0.86853600	    -0.92902900
 C	     6.87843900	     1.80000800	    -0.35982300
 C	     6.33983200	    -0.55592200	    -1.12696600
 C	     3.30829500	     1.22703200	    -0.60122100
 C	    -0.23658700	     0.70182000	    -0.48549800
 C	    -0.10131200	    -0.77145200	    -0.56414300
 N	     1.05437100	    -1.33347900	    -0.63065600
 C	     0.86497700	    -2.78665600	    -0.55250700
 C	     1.69136500	    -3.36069100	     0.60532200
 C	     3.18743300	    -3.01138000	     0.55126000
 C	     3.88794600	    -3.67076800	    -0.64524700
 C	     3.87520800	    -3.40728800	     1.86427500
 C	    -0.66696100	    -3.00340900	    -0.37457600
 N	    -1.19178800	    -1.63423200	    -0.43473000
 C	    -2.56357300	    -1.39270800	    -0.71070900
 C	    -2.97486000	    -0.85743800	    -1.93524100
 C	    -4.33209600	    -0.65047800	    -2.17186800
 C	    -5.28143500	    -0.98940100	    -1.20492400
 C	    -4.88485700	    -1.55122600	     0.01570700
 C	    -5.90424800	    -1.90853000	     1.08387400
 C	    -6.61614400	    -0.65275600	     1.61631000
 C	    -6.92293700	    -2.94428400	     0.57814700
 C	    -3.51894000	    -1.74971800	     0.24593200
 N	    -1.37388200	     1.30131400	    -0.48900300
 H	    -3.64757000	     6.14979200	    -0.25573000
 H	    -4.11718700	     4.44160800	    -0.31376200
 H	    -2.81648500	     5.04543600	    -1.35913500
 H	    -2.71932100	     5.06890300	     1.70471700
 H	    -0.50539100	     5.57008800	    -0.35728200
 H	    -0.27341100	     5.51330800	     1.40332100
 H	    -1.28312400	     6.77478100	     0.67736800
 H	    -2.83270300	     2.75152700	     0.91465100
 H	    -1.31510800	     3.11431500	     1.72368300
 H	    -1.51512200	     3.20645100	    -1.31236000
 H	     0.80610400	     3.51579000	    -1.15029800
 H	     0.75060800	     3.35834600	     0.61782300
 H	     1.30390000	     0.73304900	     2.10234500
 H	     3.49484600	     0.09252700	     3.09181400
 H	     5.54665000	     0.15503800	     1.71663300
 H	     5.51334000	     1.25381800	    -1.91828100
 H	     7.71156300	     1.89773100	    -1.06705300
 H	     7.28277400	     1.41261500	     0.58318400
 H	     6.47752800	     2.80297900	    -0.17075400
 H	     6.66520800	    -0.99123100	    -0.17448900
 H	     5.57320200	    -1.21172800	    -1.55487400
 H	     7.20012700	    -0.54956200	    -1.80821500
 H	     3.23600600	     1.52982500	    -1.64204800
 H	     1.20310500	    -3.23327800	    -1.49600200
 H	     1.57031700	    -4.45394400	     0.62005400
 H	     1.26141000	    -2.97487800	     1.54030300
 H	     3.27420500	    -1.92520900	     0.44054600
 H	     3.75994200	    -4.76161100	    -0.62486800
 H	     4.96362500	    -3.45728200	    -0.63038500
 H	     3.49816400	    -3.29979200	    -1.60056500
 H	     3.41890100	    -2.89331900	     2.71979200
 H	     4.93942100	    -3.14057000	     1.84622900
 H	     3.80023200	    -4.48896900	     2.04138300
 H	    -1.09896300	    -3.61057000	    -1.17866200
 H	    -0.91373300	    -3.47722600	     0.58490100
 H	    -2.23772300	    -0.60180800	    -2.68850700
 H	    -4.65332800	    -0.22603900	    -3.11923200
 H	    -6.33474000	    -0.81390900	    -1.40461200
 H	    -5.36347600	    -2.36267600	     1.92510600
 H	    -7.23605900	    -0.18960400	     0.83910700
 H	    -5.89103600	     0.09431700	     1.96025800
 H	    -7.26766700	    -0.90699700	     2.46192800
 H	    -7.57943700	    -3.26908400	     1.39513000
 H	    -7.55577500	    -2.52725700	    -0.21447500
 H	    -6.41799000	    -3.83131700	     0.17750200
 H	    -3.18775600	    -2.17303700	     1.19029200

