88
L26.xyz
 C	     6.99580700	    -0.91885700	    -1.30683600
 C	     6.26337300	    -0.76203100	     0.03171000
 C	     7.24129900	    -0.33076300	     1.13149600
 C	     5.09870800	     0.23985200	    -0.05435900
 C	     3.95765100	    -0.15687200	    -1.00183500
 C	     3.11717400	    -1.35726800	    -0.49557700
 N	     1.95410800	    -0.67000700	     0.07775400
 C	     0.96197900	    -1.30446000	     0.84214800
 C	     0.70548600	    -2.66831000	     0.66287000
 C	    -0.29950700	    -3.27393700	     1.41602800
 C	    -1.05251100	    -2.53815000	     2.32802300
 C	    -0.79621800	    -1.17104200	     2.53304600
 C	    -1.63200200	    -0.37953100	     3.54913800
 C	    -1.53702200	    -1.05342800	     4.93415700
 C	    -3.10460900	    -0.37118000	     3.08590200
 C	    -1.16133300	     1.07679800	     3.69087400
 C	     0.22976300	    -0.57669300	     1.79576500
 C	     1.94387700	     0.61099800	    -0.45009000
 C	     0.73873900	     1.47687500	    -0.33158900
 N	     0.76187700	     2.61569500	     0.26578800
 C	    -0.61563800	     3.16447600	     0.19118700
 C	    -0.63488000	     4.36696500	    -0.76203200
 C	    -1.95771000	     5.15204500	    -0.79970500
 C	    -2.27333500	     5.82136800	     0.54402800
 C	    -1.91344400	     6.19634200	    -1.92186100
 C	    -1.50046200	     1.97989100	    -0.27947800
 N	    -0.49195700	     1.05081400	    -0.80399400
 C	    -0.80003900	    -0.13390400	    -1.49293800
 C	     0.09423100	    -0.67737600	    -2.43051200
 C	    -0.22878600	    -1.87374400	    -3.05937400
 C	    -1.44298600	    -2.51914900	    -2.80461900
 C	    -2.36467200	    -1.96938800	    -1.90531700
 C	    -3.72380300	    -2.61913600	    -1.60559000
 C	    -3.80633400	    -2.97439200	    -0.10623600
 C	    -4.85059500	    -1.62397500	    -1.95596100
 C	    -3.94594500	    -3.90474600	    -2.41751800
 C	    -2.01961400	    -0.77689800	    -1.25243000
 N	     2.99319200	     0.96965700	    -1.10259100
 H	     7.39003700	     0.04691100	    -1.64996300
 H	     7.84265600	    -1.60901400	    -1.20890300
 H	     6.34234900	    -1.31109200	    -2.09413800
 H	     5.85577200	    -1.74397600	     0.31393400
 H	     7.68095500	     0.64858100	     0.90055000
 H	     8.06365700	    -1.04922600	     1.23520100
 H	     6.73892600	    -0.24992900	     2.10317100
 H	     5.48454200	     1.21554100	    -0.37869200
 H	     4.67142000	     0.38852000	     0.94692900
 H	     4.35612600	    -0.35765600	    -1.99931700
 H	     2.80448100	    -2.01536700	    -1.31690400
 H	     3.61878300	    -1.95879200	     0.26660600
 H	     1.26376300	    -3.24091500	    -0.06911500
 H	    -0.50583700	    -4.33154900	     1.27523100
 H	    -1.84021700	    -3.03364000	     2.88624700
 H	    -2.13130500	    -0.49616600	     5.66847900
 H	    -0.49885500	    -1.07874800	     5.28556700
 H	    -1.91119000	    -2.08218400	     4.91374500
 H	    -3.20258600	     0.11330300	     2.10695400
 H	    -3.72650800	     0.18115600	     3.80118500
 H	    -3.50787700	    -1.38578100	     3.00273200
 H	    -1.78513800	     1.59297100	     4.42935000
 H	    -1.24088600	     1.62733900	     2.74751000
 H	    -0.12194700	     1.13743100	     4.03279700
 H	     0.48431700	     0.46192300	     1.95575300
 H	    -0.90753700	     3.48413200	     1.19492900
 H	     0.17903300	     5.04436300	    -0.47128800
 H	    -0.39577900	     4.00397600	    -1.77117600
 H	    -2.77201200	     4.44893600	    -1.02934300
 H	    -1.47074500	     6.51369600	     0.83096100
 H	    -2.39015500	     5.09283500	     1.35420800
 H	    -3.20480700	     6.39728000	     0.48317600
 H	    -1.11064800	     6.92445300	    -1.74547600
 H	    -1.73026400	     5.72754500	    -2.89640200
 H	    -2.85788900	     6.75053300	    -1.98589000
 H	    -2.21430200	     2.24611100	    -1.06378200
 H	    -2.04834000	     1.52195000	     0.55304100
 H	     1.01669300	    -0.16092900	    -2.66931500
 H	     0.46514900	    -2.29959900	    -3.77943700
 H	    -1.66494500	    -3.44266900	    -3.32575600
 H	    -3.68673700	    -2.09098000	     0.52784100
 H	    -4.77990400	    -3.42546000	     0.12267500
 H	    -3.02366100	    -3.68930800	     0.16821900
 H	    -4.77719300	    -0.70323000	    -1.36756200
 H	    -5.83057700	    -2.07305500	    -1.75325900
 H	    -4.81487500	    -1.34939400	    -3.01683900
 H	    -3.92550800	    -3.71413500	    -3.49660600
 H	    -3.19060600	    -4.66528900	    -2.18929400
 H	    -4.92686300	    -4.32802000	    -2.17319500
 H	    -2.70335400	    -0.34878100	    -0.52912900

