54
L28.xyz
 C	     6.86064400	     0.41751900	    -1.10167700
 C	     5.78430700	    -0.33525700	    -0.30284800
 C	     6.41993200	    -0.92124200	     0.96828400
 C	     5.19756300	    -1.47448800	    -1.15010500
 C	     4.67824700	     0.67203500	     0.11677900
 C	     3.91749100	     1.35825200	    -1.04987400
 O	     2.53766400	     0.93452300	    -0.88020000
 C	     2.51385800	     0.20323900	     0.25984400
 C	     1.20205100	    -0.33565100	     0.68479100
 C	     1.13241800	    -1.15033800	     1.82177700
 C	    -0.11179400	    -1.64626000	     2.19349000
 C	    -1.23021000	    -1.31809400	     1.42726000
 C	    -1.06628300	    -0.49263700	     0.30973200
 C	    -2.23250200	    -0.03673900	    -0.56056000
 C	    -3.39592100	    -1.02294800	    -0.54886400
 C	    -3.34826400	    -2.13985300	    -1.39392600
 C	    -4.37396400	    -3.08510000	    -1.38862000
 C	    -5.46622400	    -2.92776700	    -0.53139900
 C	    -5.52265500	    -1.81886700	     0.31468800
 C	    -4.49566500	    -0.87193800	     0.30387300
 C	    -2.66561900	     1.38783400	    -0.22635400
 C	    -3.25350500	     2.16855100	    -1.23048400
 C	    -3.70366400	     3.46021400	    -0.96036400
 C	    -3.57302700	     3.99302900	     0.32517100
 C	    -2.98848000	     3.22358600	     1.33179100
 C	    -2.53710700	     1.92992300	     1.05716800
 N	     0.13206700	    -0.01136700	    -0.05404800
 N	     3.61018900	     0.01618700	     0.89244600
 H	     7.68454900	    -0.25772600	    -1.36165200
 H	     7.27879700	     1.24693500	    -0.51748000
 H	     6.46646200	     0.82958700	    -2.03814100
 H	     7.22145200	    -1.62330000	     0.70853200
 H	     5.67789500	    -1.45451900	     1.57058000
 H	     6.85571700	    -0.13019600	     1.59173100
 H	     4.73776600	    -1.10587900	    -2.07477500
 H	     5.98681400	    -2.17985600	    -1.43574300
 H	     4.43596300	    -2.02838300	    -0.59073300
 H	     5.15518700	     1.42693200	     0.75407400
 H	     3.94285900	     2.44954500	    -0.99310000
 H	     4.23798300	     1.04583600	    -2.04573000
 H	     2.03338000	    -1.37855400	     2.37869200
 H	    -0.21182900	    -2.28359700	     3.06711100
 H	    -2.21208600	    -1.69486900	     1.68912500
 H	    -1.83743800	    -0.01329200	    -1.58181600
 H	    -2.49811500	    -2.26586800	    -2.06023200
 H	    -4.32244600	    -3.94181200	    -2.05530200
 H	    -6.26798200	    -3.66112700	    -0.52669900
 H	    -6.36938700	    -1.68548400	     0.98277900
 H	    -4.55332100	    -0.00770000	     0.95826200
 H	    -3.35879500	     1.75550900	    -2.23078000
 H	    -4.15304200	     4.05207200	    -1.75335600
 H	    -3.92041700	     5.00035500	     0.53779400
 H	    -2.87889700	     3.62888200	     2.33419700
 H	    -2.07793800	     1.34454900	     1.84802000

