55
L29.xyz
 C	     8.44531600	     0.50667500	    -1.23995800
 C	     7.48036400	    -0.05527400	    -2.07730500
 C	     6.30480500	    -0.58284600	    -1.53691200
 C	     6.07425200	    -0.55847700	    -0.15535300
 C	     4.78639300	    -1.08555800	     0.43166100
 C	     3.83233800	     0.04668600	     0.86433000
 C	     3.27111900	     0.88044600	    -0.31460800
 O	     1.85287500	     0.55878500	    -0.33231300
 C	     1.63430600	    -0.20524600	     0.76490300
 C	     0.23822400	    -0.62427000	     1.02382600
 C	    -0.03789500	    -1.44180700	     2.12660700
 C	    -1.35767600	    -1.82137900	     2.34281700
 C	    -2.34388300	    -1.38089700	     1.46047900
 C	    -1.97528500	    -0.56278400	     0.38684300
 C	    -2.98574200	     0.00662700	    -0.60337700
 C	    -3.33329200	     1.45795800	    -0.28577600
 C	    -3.33682300	     1.95975100	     1.02063600
 C	    -3.70461100	     3.28388700	     1.27332200
 C	    -4.07226100	     4.12463800	     0.22199200
 C	    -4.06994700	     3.63244300	    -1.08607500
 C	    -3.70354800	     2.31018500	    -1.33452400
 C	    -4.21885000	    -0.87869800	    -0.75371100
 C	    -4.14893900	    -2.00072400	    -1.59081000
 C	    -5.23772000	    -2.86186700	    -1.72538200
 C	    -6.41834600	    -2.61284200	    -1.02030400
 C	    -6.49817100	    -1.49763100	    -0.18476000
 C	    -5.40662300	    -0.63523200	    -0.05467500
 N	    -0.70385300	    -0.19186100	     0.17439700
 N	     2.63207100	    -0.52041700	     1.50342600
 C	     7.05301600	     0.00722600	     0.67554700
 C	     8.22808300	     0.53500400	     0.14066200
 H	     9.36100900	     0.91611400	    -1.65768900
 H	     7.64179000	    -0.08635300	    -3.15161000
 H	     5.55962300	    -1.02544500	    -2.19349500
 H	     4.99134800	    -1.70307100	     1.31378700
 H	     4.26686400	    -1.71874900	    -0.29704600
 H	     4.35513900	     0.68550300	     1.58407200
 H	     3.68950700	     0.61119100	    -1.28704500
 H	     3.36996500	     1.95919800	    -0.16626500
 H	     0.76728800	    -1.76068600	     2.77772000
 H	    -1.61741800	    -2.45504400	     3.18567900
 H	    -3.38045900	    -1.66544700	     1.59946700
 H	    -2.46988900	     0.01141200	    -1.56945300
 H	    -3.04652000	     1.31813000	     1.84708100
 H	    -3.69967600	     3.65703300	     2.29399900
 H	    -4.35427500	     5.15545600	     0.41813000
 H	    -4.34961000	     4.27947800	    -1.91323700
 H	    -3.70444100	     1.92920100	    -2.35290000
 H	    -3.23038500	    -2.19871200	    -2.13826800
 H	    -5.16633100	    -3.72426000	    -2.38283500
 H	    -7.26899500	    -3.28074400	    -1.12470500
 H	    -7.41295100	    -1.29268300	     0.36508100
 H	    -5.48192400	     0.23422800	     0.59078400
 H	     6.89180600	     0.02838400	     1.75100100
 H	     8.97638700	     0.96555300	     0.80090700

