39
L31.xyz
 C	    -5.65476500	    -1.66253600	     0.83703400
 C	    -5.92027600	    -0.86022000	    -0.27464400
 C	    -4.89884100	    -0.10020700	    -0.84820400
 C	    -3.60533800	    -0.12787100	    -0.31535500
 C	    -2.52280100	     0.75117400	    -0.90514200
 C	    -2.36127100	     2.10178000	    -0.14839800
 O	    -0.93311600	     2.20339200	     0.08126600
 C	    -0.40549000	     1.00617100	    -0.30211100
 C	     1.04316500	     0.84724700	    -0.05070100
 C	     1.76775800	     1.85451200	     0.59413700
 C	     3.12628200	     1.64572700	     0.80659100
 C	     3.73124100	     0.46113700	     0.38134000
 C	     2.91179000	    -0.49360900	    -0.25836000
 N	     1.60379000	    -0.29820900	    -0.46610000
 C	     3.46542200	    -1.82366500	    -0.72472400
 C	     4.99422100	    -1.84309800	    -0.81973200
 C	     5.61357600	    -1.24297200	     0.44546100
 C	     5.21340000	     0.22969400	     0.58285500
 N	    -1.18170600	     0.14066800	    -0.83466300
 C	    -3.34589700	    -0.93489100	     0.79890000
 C	    -4.36355700	    -1.69951300	     1.37035100
 H	    -6.44673100	    -2.25882900	     1.28191300
 H	    -6.92007500	    -0.82985800	    -0.69949100
 H	    -5.10588100	     0.51842100	    -1.71843700
 H	    -2.76024700	     0.93348100	    -1.96038200
 H	    -2.86266600	     2.10299700	     0.82391300
 H	    -2.67939200	     2.97088800	    -0.72728400
 H	     1.27914900	     2.76529700	     0.91831300
 H	     3.72252300	     2.40483000	     1.30720300
 H	     3.00032900	    -2.07750500	    -1.68372300
 H	     3.13409700	    -2.59445500	    -0.01339900
 H	     5.31916200	    -1.26026000	    -1.69288900
 H	     5.34105300	    -2.87105400	    -0.97484900
 H	     6.70614800	    -1.32649000	     0.42429900
 H	     5.26450100	    -1.80509400	     1.32267800
 H	     5.51382700	     0.62714400	     1.56005000
 H	     5.76070800	     0.82098900	    -0.16627900
 H	    -2.33998200	    -0.97096800	     1.20672300
 H	    -4.14789000	    -2.32706000	     2.23106600

