62
L35.xyz
 C	     9.40203600	    -1.35196900	     0.58013600
 C	     8.93508900	    -2.65533000	     0.39739000
 C	     7.69596400	    -2.87613500	    -0.20734600
 C	     6.90402900	    -1.80343600	    -0.63776700
 C	     5.54808700	    -2.04901300	    -1.25259000
 C	     4.40648500	    -2.07415400	    -0.21464100
 C	     3.01523700	    -2.30019600	    -0.85735500
 O	     2.33007800	    -1.03085200	    -0.67637100
 C	     3.14393500	    -0.28523200	     0.10918900
 C	     2.65700700	     1.05700800	     0.50195500
 C	     3.50048400	     1.89608600	     1.24245300
 C	     3.02708400	     3.15581600	     1.59048100
 C	     1.74799500	     3.53264500	     1.18640900
 C	     0.97623100	     2.62662200	     0.44376200
 C	    -0.39833500	     2.98382000	    -0.01189600
 C	    -0.72627700	     4.30655300	    -0.34466600
 C	    -2.02244800	     4.59418300	    -0.76677400
 C	    -2.95129900	     3.56266700	    -0.84204600
 C	    -2.53245100	     2.27191500	    -0.49297700
 C	    -3.50484800	     1.15650300	    -0.55675800
 N	    -4.70742500	     1.27030600	    -0.98263100
 C	    -5.34593400	    -0.04661800	    -0.80948700
 C	    -6.49979500	     0.05795300	     0.20924700
 C	    -7.23299800	    -1.25082000	     0.38193900
 C	    -8.10401600	    -1.71478800	    -0.61515600
 C	    -8.75256000	    -2.94275200	    -0.48389100
 C	    -8.53966800	    -3.73127500	     0.65060800
 C	    -7.67684500	    -3.28006900	     1.65062600
 C	    -7.02940500	    -2.04942400	     1.51476400
 C	    -4.18697400	    -0.96728800	    -0.35315800
 O	    -3.08025300	    -0.05281600	    -0.12126400
 N	    -1.28883600	     1.98268800	    -0.09171100
 N	     1.42474200	     1.40528500	     0.11326800
 N	     4.27962100	    -0.76659400	     0.45134700
 C	     7.38288400	    -0.49978300	    -0.44785100
 C	     8.62111500	    -0.27408600	     0.15467400
 H	    10.36744900	    -1.17725600	     1.04742000
 H	     9.53664200	    -3.50072100	     0.72118800
 H	     7.33833800	    -3.89347400	    -0.35058800
 H	     5.31682200	    -1.27255400	    -1.99215000
 H	     5.54225800	    -3.01225100	    -1.77710700
 H	     4.63022100	    -2.84057500	     0.53509300
 H	     3.05368900	    -2.51170000	    -1.92906600
 H	     2.42893600	    -3.07458100	    -0.35454300
 H	     4.48865000	     1.55374200	     1.52597500
 H	     3.64229200	     3.83490700	     2.17289500
 H	     1.34824700	     4.50256300	     1.46106600
 H	     0.02295800	     5.08886700	    -0.29481700
 H	    -2.30047100	     5.60819900	    -1.03758000
 H	    -3.97343500	     3.73097400	    -1.15961000
 H	    -5.75713700	    -0.37782600	    -1.76877600
 H	    -6.08670100	     0.39134700	     1.16849500
 H	    -7.18400600	     0.83932000	    -0.14115300
 H	    -8.27741800	    -1.10437700	    -1.49855500
 H	    -9.42678900	    -3.28376300	    -1.26515000
 H	    -9.04570300	    -4.68717100	     0.75466900
 H	    -7.50772900	    -3.88328600	     2.53870000
 H	    -6.36353200	    -1.69961200	     2.29994600
 H	    -4.38380300	    -1.50127800	     0.57912100
 H	    -3.87738600	    -1.68267300	    -1.12003300
 H	     6.77590500	     0.34062200	    -0.77292700
 H	     8.97753000	     0.74367500	     0.29098200

