87
L38.xyz
 Fe	     0.13090800	    -1.96094200	    -1.09966000
 C	    -0.70039000	    -0.08459300	    -0.88560800
 C	     0.74889600	     0.01728800	    -0.95402300
 C	     1.15980900	    -0.53700800	    -2.20168500
 H	     2.18065900	    -0.65414100	    -2.53415800
 C	     0.00502600	    -0.97819200	    -2.91242400
 H	     0.00220600	    -1.48112000	    -3.87152200
 C	    -1.13616700	    -0.69630200	    -2.11159200
 H	    -2.15550800	    -0.92682500	    -2.38162700
 C	     1.27523700	    -3.17703500	     0.13036500
 H	     2.19454200	    -2.85833700	     0.59857200
 C	    -0.03867000	    -3.03152500	     0.66735900
 H	    -0.28822900	    -2.59094900	     1.62351900
 C	    -0.96816300	    -3.52398600	    -0.30145800
 H	    -2.04574700	    -3.52335400	    -0.20945800
 C	    -0.22510300	    -3.97303500	    -1.43544800
 H	    -0.64210700	    -4.36666100	    -2.35388000
 C	     1.16091800	    -3.75797000	    -1.16858700
 H	     1.98037800	    -3.95977200	    -1.84671600
 P	    -1.63601600	     0.56222800	     0.54832600
 C	     1.59236800	     0.74183200	     0.06824700
 H	     1.10274900	     0.55833200	     1.02929400
 C	     1.48720400	     2.25935800	    -0.16996200
 H	     2.04500300	     2.82832800	     0.57478500
 H	     1.83790300	     2.54838100	    -1.16432500
 H	     0.43623400	     2.56250800	    -0.09199800
 P	     3.30443400	    -0.02886300	     0.34480700
 C	     3.43233600	     0.19548400	     2.24650700
 C	     2.97706200	     1.55246600	     2.80870700
 C	     2.52776700	    -0.90742600	     2.83916000
 C	     4.86846900	    -0.08264000	     2.71867200
 H	     3.55175900	     2.38720600	     2.40121900
 H	     1.91612700	     1.74150600	     2.62024100
 H	     3.11555100	     1.55662400	     3.89912300
 H	     2.89660400	    -1.90622900	     2.58287800
 H	     2.51759500	    -0.82424700	     3.93452300
 H	     1.48987100	    -0.83281600	     2.49700700
 H	     4.87752200	    -0.18413300	     3.81251500
 H	     5.26587900	    -1.01271200	     2.29717000
 H	     5.55065500	     0.73252800	     2.46255600
 C	     4.63822500	     1.04177700	    -0.51999400
 C	     4.89246500	     2.45818600	     0.01462600
 C	     5.95887000	     0.24408700	    -0.44582000
 C	     4.25945700	     1.11412800	    -2.01199700
 H	     4.00954700	     3.09623700	    -0.04681400
 H	     5.23539900	     2.44406100	     1.05291700
 H	     5.68380200	     2.93444600	    -0.58180200
 H	     5.82989400	    -0.78114500	    -0.81069600
 H	     6.71140300	     0.73276000	    -1.08000000
 H	     6.36740200	     0.19437500	     0.56496500
 H	     5.04917500	     1.64728200	    -2.55846600
 H	     4.17823900	     0.11364400	    -2.45068500
 H	     3.32014000	     1.64244300	    -2.19215700
 C	    -2.97700300	    -0.69721300	     0.94460200
 C	    -3.77305800	    -0.15752100	     2.15280400
 C	    -3.93060200	    -1.14408900	    -0.17560700
 H	    -2.41924400	    -1.57931800	     1.28460000
 C	    -4.81261800	    -1.16943800	     2.65349900
 H	    -4.29332100	     0.76687500	     1.86376600
 H	    -3.08521700	     0.11013500	     2.96436400
 C	    -4.97969200	    -2.14486300	     0.33473300
 H	    -4.44496800	    -0.27003700	    -0.59803800
 H	    -3.36540400	    -1.60787000	    -0.98578600
 C	    -5.76381000	    -1.59152300	     1.52848800
 H	    -5.37598000	    -0.74061800	     3.49217800
 H	    -4.29308000	    -2.05787500	     3.04130000
 H	    -5.66187000	    -2.41290400	    -0.48258900
 H	    -4.47212300	    -3.07249400	     0.63854200
 H	    -6.48194800	    -2.33687300	     1.89336000
 H	    -6.34967200	    -0.71869500	     1.20393300
 C	    -2.64021700	     2.01168300	    -0.15877300
 C	    -2.52116500	     3.20160600	     0.81455100
 C	    -2.26354800	     2.44094300	    -1.58571200
 H	    -3.69224100	     1.69818300	    -0.17611900
 C	    -3.34328600	     4.41059800	     0.34985900
 H	    -1.46306200	     3.49098200	     0.89610800
 H	    -2.83434900	     2.89505200	     1.82051200
 C	    -3.08584500	     3.65407400	    -2.04519400
 H	    -1.19518100	     2.69360600	    -1.62492300
 H	    -2.40957100	     1.60960300	    -2.28148900
 C	    -2.95535500	     4.83144200	    -1.07204000
 H	    -3.20792100	     5.24667200	     1.04824400
 H	    -4.41212900	     4.15084900	     0.37121100
 H	    -2.77018500	     3.95420700	    -3.05300000
 H	    -4.14431900	     3.36384000	    -2.11922500
 H	    -3.57547700	     5.67346800	    -1.40538900
 H	    -1.91375900	     5.18544900	    -1.07190000

