75
L39.xyz
 Fe	    -1.15715500	    -1.58671700	    -1.27979900
 C	    -1.56432600	     0.43789300	    -0.78142900
 C	    -0.25061800	     0.32482100	    -1.38355100
 C	    -0.40904500	    -0.26066900	    -2.67675900
 H	     0.39827100	    -0.50076700	    -3.35670700
 C	    -1.79506000	    -0.49804500	    -2.90361400
 H	    -2.22678700	    -0.97243200	    -3.77629400
 C	    -2.50225400	    -0.08502800	    -1.74062900
 H	    -3.56966100	    -0.16431500	    -1.60208300
 C	     0.15960700	    -3.17500800	    -0.98626400
 H	     1.22915600	    -3.10535300	    -1.12145800
 C	    -0.55154600	    -2.92249800	     0.22323800
 H	    -0.11200400	    -2.64365500	     1.16854600
 C	    -1.94434500	    -3.08172600	    -0.04266300
 H	    -2.74636800	    -2.94406000	     0.66855900
 C	    -2.09537800	    -3.42889500	    -1.41741500
 H	    -3.03360800	    -3.57723000	    -1.93721400
 C	    -0.79367100	    -3.48715200	    -2.00156500
 H	    -0.57162100	    -3.68505500	    -3.04259400
 P	    -1.86460300	     1.42581000	     0.74306100
 C	     1.04193500	     0.93217600	    -0.89109800
 H	     0.86443400	     1.40632500	     0.07733500
 C	     1.51264700	     2.01841900	    -1.88103500
 H	     2.31121100	     2.62673100	    -1.44821600
 H	     1.88968200	     1.57726600	    -2.81127000
 H	     0.68066700	     2.67760700	    -2.14220600
 P	     2.41660000	    -0.34764100	    -0.72057300
 C	    -3.12131100	     0.44557700	     1.79742400
 C	    -2.72465300	     2.97543200	     0.00628400
 C	    -2.25923600	    -0.57634000	     2.56295200
 H	    -1.67027300	    -1.19723600	     1.88710600
 H	    -1.56797600	    -0.07319000	     3.24657300
 H	    -2.90397200	    -1.23627500	     3.15976100
 C	    -4.14719700	     2.77892300	    -0.53176400
 H	    -4.18769800	     2.00149100	    -1.30007800
 H	    -4.85656900	     2.52130600	     0.25926500
 H	    -4.49725400	     3.71414300	    -0.99186200
 C	    -1.82350200	     3.46370500	    -1.14214400
 H	    -2.20262400	     4.42371100	    -1.51722700
 H	    -0.79425700	     3.62439300	    -0.80340700
 H	    -1.80470100	     2.76016100	    -1.97906800
 C	    -2.72501600	     4.07515500	     1.08611400
 H	    -1.71841800	     4.24100700	     1.48711500
 H	    -3.06929100	     5.02015200	     0.64416600
 H	    -3.38795400	     3.84498200	     1.92285100
 C	    -4.23776900	    -0.29766100	     1.05076100
 H	    -3.83514700	    -1.05571500	     0.37803500
 H	    -4.88059500	    -0.81012500	     1.78088400
 H	    -4.87321800	     0.37567000	     0.47081800
 C	    -3.75352300	     1.38970500	     2.83480900
 H	    -4.27489900	     0.78959000	     3.59281000
 H	    -3.00020600	     1.99377800	     3.35337800
 H	    -4.49017000	     2.06375300	     2.38925600
 C	     3.85628300	     0.75657000	    -0.34524300
 C	     4.83943500	     0.91035900	    -1.33390000
 C	     3.99596200	     1.46259500	     0.85995200
 C	     5.93110200	     1.75815900	    -1.13113100
 H	     4.74743500	     0.36437800	    -2.26955500
 C	     5.08615400	     2.30817700	     1.06527100
 H	     3.25321000	     1.34728300	     1.64373200
 C	     6.05582800	     2.45925200	     0.06928600
 H	     6.68358100	     1.86700500	    -1.90769500
 H	     5.18107700	     2.84888700	     2.00337500
 H	     6.90557400	     3.11680200	     0.23161100
 C	     2.14970700	    -1.08987700	     0.94620900
 C	     2.82993000	    -2.29211100	     1.20402300
 C	     1.34989400	    -0.54319000	     1.96032600
 C	     2.72312400	    -2.92773800	     2.44098100
 H	     3.44570900	    -2.73635700	     0.42533200
 C	     1.24126300	    -1.17968000	     3.19924600
 H	     0.78824400	     0.36861300	     1.79073300
 C	     1.92512100	    -2.37193900	     3.44404000
 H	     3.25641100	    -3.85765000	     2.61916700
 H	     0.61484600	    -0.74360800	     3.97220900
 H	     1.83457800	    -2.86606000	     4.40747900

