52
L40.xyz
 C	    -5.61413000	     2.48980400	     0.35604400
 C	    -5.80400700	     1.28178400	    -0.32177600
 C	    -4.70582200	     0.52257100	    -0.72173200
 C	    -3.39501800	     0.94861100	    -0.44257400
 P	    -1.98358800	    -0.05513200	    -1.07733400
 C	    -0.60429500	     0.46361600	     0.07383800
 C	     0.60429100	    -0.46346700	    -0.07444000
 P	     1.98342100	     0.05500100	     1.07699800
 C	     2.37739300	     1.71140400	     0.36069600
 C	     2.09354800	     2.85301300	     1.12313200
 C	     2.31518200	     4.13098800	     0.60226500
 C	     2.82867800	     4.27876100	    -0.68667800
 C	     3.11906900	     3.14632500	    -1.45469500
 C	     2.89387400	     1.87226400	    -0.93541000
 C	     3.39488100	    -0.94872600	     0.44227200
 C	     3.21619800	    -2.16461000	    -0.23468500
 C	     4.31811800	    -2.92830700	    -0.62976400
 C	     5.61399200	    -2.48994900	    -0.35626400
 C	     5.80386100	    -1.28211400	     0.32189300
 C	     4.70567300	    -0.52289000	     0.72181800
 C	    -2.37735000	    -1.71139000	    -0.36056600
 C	    -2.89351900	    -1.87195200	     0.93571000
 C	    -3.11857400	    -3.14588800	     1.45534700
 C	    -2.82834800	    -4.27850600	     0.68753000
 C	    -2.31515800	    -4.13103500	    -0.60156400
 C	    -2.09365500	    -2.85317700	    -1.12278400
 C	    -3.21632400	     2.16469900	     0.23401600
 C	    -4.31824200	     2.92838300	     0.62913200
 H	    -6.46983600	     3.08298300	     0.66650900
 H	    -6.80936500	     0.93080000	    -0.53917300
 H	    -4.86680100	    -0.41637600	    -1.24551800
 H	    -0.32392100	     1.48799200	    -0.19326800
 H	    -0.96266000	     0.47397200	     1.11017900
 H	     0.32391200	    -1.48788900	     0.19246600
 H	     0.96273200	    -0.47365100	    -1.11076200
 H	     1.69683400	     2.74070500	     2.12903200
 H	     2.09014700	     5.00726900	     1.20421300
 H	     3.00457200	     5.27111800	    -1.09285900
 H	     3.51972300	     3.25811000	    -2.45874900
 H	     3.12526200	     0.99692700	    -1.53570100
 H	     2.21820100	    -2.52455400	    -0.46291300
 H	     4.15923100	    -3.86542600	    -1.15692800
 H	     6.46970200	    -3.08314200	    -0.66669000
 H	     6.80921400	    -0.93129900	     0.53958000
 H	     4.86665100	     0.41589400	     1.24589500
 H	    -3.12477300	    -0.99646900	     1.53584200
 H	    -3.51899400	    -3.25745200	     2.45951900
 H	    -3.00413600	    -5.27076500	     1.09399600
 H	    -2.09024600	    -5.00744800	    -1.20336400
 H	    -1.69717500	    -2.74111300	    -2.12880300
 H	    -2.21833000	     2.52484600	     0.46193700
 H	    -4.15934300	     3.86565600	     1.15601800

