60
L43.xyz
 Fe	     0.23189300	    -2.15394200	     0.49499100
 N	     3.03583700	     0.67547700	     1.14330700
 O	     1.71366500	     1.10612700	    -0.64755700
 P	    -1.23619400	     0.64850500	    -0.83042800
 C	     1.90881300	     0.50546100	     0.55975700
 C	     2.89268500	     1.92112000	    -0.88240000
 H	     3.24071400	     1.71827500	    -1.89658100
 H	     2.59359700	     2.97032300	    -0.80541700
 C	     3.87284500	     1.48772700	     0.23729000
 C	     0.79237200	    -0.27278600	     1.07991200
 C	    -0.57935700	    -0.26607700	     0.61859300
 C	    -1.30137500	    -1.16136400	     1.47159100
 H	    -2.34946900	    -1.40482200	     1.37360000
 C	    -0.40148900	    -1.71531400	     2.42925400
 H	    -0.65005300	    -2.45708000	     3.17726400
 C	     0.88809200	    -1.16845500	     2.19437400
 H	     1.79868700	    -1.39592300	     2.73108100
 C	     0.04847700	    -2.77280200	    -1.46903700
 H	    -0.41627900	    -2.17739300	    -2.24351100
 C	     1.42501800	    -2.72619200	    -1.09408800
 H	     2.18105500	    -2.09195200	    -1.53641300
 C	     1.61359300	    -3.61474300	     0.00851200
 H	     2.54084000	    -3.77904900	     0.54224400
 C	     0.35116800	    -4.21110300	     0.31386800
 H	     0.15490400	    -4.90568000	     1.12064600
 C	    -0.61643800	    -3.69023900	    -0.59887200
 H	    -1.67490400	    -3.91632900	    -0.60261600
 C	    -1.27254300	     2.37161900	    -0.17124500
 C	    -1.46044700	     3.41132700	    -1.09533600
 H	    -1.58333100	     3.17684700	    -2.15036500
 C	    -1.48515300	     4.74194700	    -0.67617700
 H	    -1.63442200	     5.53530700	    -1.40372300
 C	    -1.30595000	     5.05299300	     0.67402700
 H	    -1.31563800	     6.08908100	     1.00118600
 C	    -1.10894100	     4.02680300	     1.60077900
 H	    -0.96786200	     4.26203200	     2.65247300
 C	    -1.09545000	     2.69470300	     1.18210700
 H	    -0.94682800	     1.90520600	     1.91210900
 C	    -3.01133200	     0.14545200	    -0.69476800
 C	    -3.94055600	     0.76131100	     0.15596100
 H	    -3.63589100	     1.60306400	     0.77015900
 C	    -5.25493700	     0.29614400	     0.22400200
 H	    -5.96573100	     0.78357700	     0.88619500
 C	    -5.65629000	    -0.79480900	    -0.55162100
 H	    -6.67925500	    -1.15672800	    -0.49524100
 C	    -4.73999900	    -1.41304500	    -1.40547900
 H	    -5.04705000	    -2.25686000	    -2.01766300
 C	    -3.42911700	    -0.93876200	    -1.48241200
 H	    -2.72283800	    -1.41480600	    -2.15815600
 C	     5.10625400	     0.69116800	    -0.24165500
 C	     6.03758700	     1.58279300	    -1.07033700
 C	     4.72526700	    -0.58438400	    -1.00010400
 H	     5.63992300	     0.39260100	     0.67095300
 H	     6.33043300	     2.48148400	    -0.51353900
 H	     6.95166800	     1.04241100	    -1.34265800
 H	     5.55813000	     1.90722700	    -2.00275600
 H	     4.08613000	    -1.22978900	    -0.38913700
 H	     4.19255200	    -0.35733200	    -1.93231400
 H	     5.62273200	    -1.15421700	    -1.26786800
 H	     4.23490900	     2.36511500	     0.78503000

