61
L46.xyz
 Fe	     0.06008700	    -2.00319600	     0.62890500
 N	     2.43574000	     1.09450900	     1.38153700
 O	     1.16980200	     1.39064000	    -0.47690800
 P	    -1.68426800	     0.54881700	    -0.85833300
 C	     1.35313900	     0.82527600	     0.74865100
 C	     2.26685500	     2.32508200	    -0.64493000
 H	     2.65667900	     2.21395200	    -1.65714800
 H	     1.87246300	     3.33608900	    -0.50336100
 C	     3.26197900	     1.91289300	     0.47501000
 C	     0.29829300	    -0.05951900	     1.21948200
 C	    -1.02001100	    -0.25115300	     0.65386900
 C	    -1.67220500	    -1.23305100	     1.46637100
 H	    -2.66445300	    -1.62401400	     1.29321700
 C	    -0.78152500	    -1.64551500	     2.50105900
 H	    -0.98162700	    -2.40849900	     3.24218900
 C	     0.43267700	    -0.92427400	     2.35529200
 H	     1.32255900	    -1.01684200	     2.96216600
 C	     0.13955700	    -2.64442200	    -1.33528300
 H	    -0.32835400	    -2.11937800	    -2.15733900
 C	     1.45830300	    -2.41222600	    -0.84095800
 H	     2.16064300	    -1.68400400	    -1.22392600
 C	     1.66448800	    -3.26441100	     0.28687000
 H	     2.55355000	    -3.30103800	     0.90323700
 C	     0.47082000	    -4.02469100	     0.48805300
 H	     0.29784300	    -4.73743000	     1.28422700
 C	    -0.47209100	    -3.64076900	    -0.51405900
 H	    -1.48624600	    -4.00697100	    -0.60787700
 C	    -2.04127200	     2.24497300	    -0.22617700
 C	    -2.28510800	     3.24882900	    -1.17639400
 H	    -2.26137100	     3.00288800	    -2.23562500
 C	    -2.55130800	     4.55894600	    -0.77682900
 H	    -2.74055600	     5.32446500	    -1.52455800
 C	    -2.56184900	     4.88708700	     0.58112700
 H	    -2.75988900	     5.90867600	     0.89385100
 C	    -2.31142000	     3.89787300	     1.53489200
 H	    -2.31745500	     4.14686000	     2.59282100
 C	    -2.05574700	     2.58476600	     1.13470500
 H	    -1.86885900	     1.82269000	     1.88484500
 C	    -3.36432700	    -0.22553200	    -0.86627300
 C	    -4.45579900	     0.25285700	    -0.12745300
 H	    -4.34710400	     1.14451000	     0.48215100
 C	    -5.68235300	    -0.41291200	    -0.16486100
 H	    -6.52094700	    -0.03032300	     0.41106500
 C	    -5.83228800	    -1.56925300	    -0.93483400
 H	    -6.78702500	    -2.08734300	    -0.96039400
 C	    -4.75266700	    -2.05195500	    -1.67820300
 H	    -4.86408300	    -2.94587400	    -2.28610600
 C	    -3.53046900	    -1.37796300	    -1.65069300
 H	    -2.69690000	    -1.75040800	    -2.24081800
 H	     3.62294100	     2.80105800	     1.00289900
 C	     4.45845700	     1.13900000	    -0.05626800
 C	     5.52947400	     1.83746500	    -0.62880900
 C	     4.49552200	    -0.25932300	    -0.03651600
 C	     6.61145000	     1.15214200	    -1.18185000
 H	     5.51320800	     2.92517900	    -0.64189400
 C	     5.57886100	    -0.94766700	    -0.58839400
 H	     3.67963000	    -0.80698300	     0.42249200
 C	     6.63867200	    -0.24528700	    -1.16455200
 H	     7.43507200	     1.70797200	    -1.62207500
 H	     5.59323600	    -2.03430200	    -0.56507500
 H	     7.48157800	    -0.78038300	    -1.59325900

