49
L5.xyz
 C	     0.38929900	     2.84132200	     1.33587400
 C	    -0.08698100	     2.31269700	    -0.03134400
 C	     0.10868900	     3.37562800	    -1.12216300
 C	    -1.54249700	     1.87105100	     0.00107400
 N	    -2.21119700	     1.53573300	    -1.03370300
 C	    -3.45617500	     0.92192600	    -0.53046000
 C	    -3.34804700	    -0.58988400	    -0.58560100
 C	    -3.10544900	    -1.38554300	    -1.70375900
 C	    -2.94443300	    -2.76317500	    -1.53066500
 C	    -3.02214800	    -3.32910800	    -0.25203300
 C	    -3.26251600	    -2.52614100	     0.86705900
 C	    -3.42265600	    -1.15136200	     0.69399400
 C	    -3.68087000	    -0.09395500	     1.74401200
 C	    -3.46972100	     1.23163200	     0.99735200
 O	    -2.11890000	     1.73759800	     1.22199500
 C	     0.68953600	     1.05577600	    -0.37382600
 N	     1.52928300	     0.90551500	    -1.32055600
 C	     2.03515000	    -0.47998800	    -1.20041300
 C	     3.42207200	    -0.52591300	    -0.59416300
 C	     4.58789600	     0.06263400	    -1.08123200
 C	     5.76760700	    -0.06260000	    -0.34270500
 C	     5.77277700	    -0.76615900	     0.86786200
 C	     4.60059200	    -1.35252500	     1.35413000
 C	     3.42287600	    -1.22825500	     0.61660400
 C	     2.05366000	    -1.79036900	     0.92997200
 C	     1.13301400	    -1.14819900	    -0.11815900
 O	     0.42220200	    -0.00481500	     0.43852700
 H	     1.44575700	     3.11976800	     1.26681600
 H	     0.27624800	     2.08878800	     2.11883800
 H	    -0.18556400	     3.72817700	     1.61962400
 H	    -0.23452500	     3.00820200	    -2.09154300
 H	     1.16661800	     3.63966900	    -1.20244600
 H	    -0.46036000	     4.27509200	    -0.86540700
 H	    -4.32453800	     1.31109800	    -1.07024000
 H	    -3.02485600	    -0.93846200	    -2.69079100
 H	    -2.75168900	    -3.39770800	    -2.39145800
 H	    -2.89030100	    -4.40067200	    -0.12799800
 H	    -3.31391500	    -2.96825300	     1.85892600
 H	    -4.71003900	    -0.15136400	     2.12129600
 H	    -3.01516000	    -0.17090800	     2.60988700
 H	    -4.16207400	     2.01916400	     1.30108100
 H	     1.98647300	    -0.97349900	    -2.17580300
 H	     4.57554700	     0.61884400	    -2.01472000
 H	     6.68498800	     0.39150400	    -0.70731400
 H	     6.69528300	    -0.85507400	     1.43539300
 H	     4.60842800	    -1.89528100	     2.29612700
 H	     1.71374300	    -1.56450200	     1.94633800
 H	     2.04029500	    -2.88231000	     0.82214000
 H	     0.37654600	    -1.83022100	    -0.51156800

