63
L50.xyz
 C	     0.92813500	     1.12129100	    -0.89308100
 C	     1.23854900	    -0.35534500	    -0.53443000
 C	     1.20883900	    -1.22404900	    -1.80739700
 C	     2.65095900	    -0.33203000	     0.01699000
 N	     3.65092900	    -0.99727800	    -0.41109000
 C	     4.83351100	    -0.56282000	     0.36101000
 C	     5.91184200	     0.07330000	    -0.55836500
 C	     7.11580800	     0.48676200	     0.30346300
 C	     6.36498200	    -0.97910200	    -1.58318200
 C	     5.35058300	     1.29597900	    -1.30063200
 C	     4.23932000	     0.37684000	     1.44261200
 O	     2.85151500	     0.53414200	     1.05011200
 C	     0.28281300	    -0.96355900	     0.52065800
 C	     0.85194400	    -1.74455100	     1.54072900
 C	     0.08927100	    -2.35698700	     2.53178200
 C	    -1.29373600	    -2.20039700	     2.52772200
 C	    -1.88537200	    -1.45769000	     1.51001600
 C	    -1.13142900	    -0.84416700	     0.49262300
 P	    -2.05769200	     0.01656400	    -0.87502900
 C	    -2.36040700	     1.68985700	    -0.16041800
 C	    -2.84810100	     2.67929600	    -1.02979200
 C	    -3.09811700	     3.97188300	    -0.56901400
 C	    -2.84549700	     4.29934100	     0.76572100
 C	    -2.34939500	     3.32593500	     1.63513900
 C	    -2.11171900	     2.02801300	     1.17703900
 C	    -3.72691300	    -0.75970900	    -0.74463400
 C	    -3.89275900	    -2.01979800	    -1.34429200
 C	    -5.12741100	    -2.66631000	    -1.31338400
 C	    -6.22337100	    -2.05317400	    -0.69920200
 C	    -6.07300200	    -0.79519700	    -0.11333100
 C	    -4.83240900	    -0.15275800	    -0.13184000
 H	     0.74300200	     1.72280300	    -0.00073100
 H	     0.06498500	     1.19396800	    -1.55526000
 H	     1.78280400	     1.55249000	    -1.42634000
 H	     1.52026500	    -2.24895900	    -1.58774000
 H	     0.19529100	    -1.24431000	    -2.21664400
 H	     1.88427300	    -0.81629700	    -2.56632800
 H	     5.28575900	    -1.44410600	     0.83101900
 H	     6.85348300	     1.26181200	     1.03326200
 H	     7.91772300	     0.88808100	    -0.32765600
 H	     7.52087300	    -0.37173500	     0.85407000
 H	     7.14161200	    -0.56806200	    -2.23956300
 H	     6.78151800	    -1.86268000	    -1.08292400
 H	     5.52710700	    -1.30815500	    -2.20533700
 H	     6.12291400	     1.73918500	    -1.94036400
 H	     5.00916700	     2.07680800	    -0.61076200
 H	     4.50672400	     1.01439100	    -1.93943900
 H	     4.68910200	     1.37047500	     1.48124400
 H	     4.25881100	    -0.06335200	     2.44389700
 H	     1.92597200	    -1.89232000	     1.55989900
 H	     0.57934800	    -2.95003200	     3.29899200
 H	    -1.90967600	    -2.65671700	     3.29763400
 H	    -2.96438200	    -1.35458600	     1.50084000
 H	    -3.03277700	     2.43477800	    -2.07328900
 H	    -3.48013300	     4.72489600	    -1.25303800
 H	    -3.02996900	     5.30835400	     1.12412100
 H	    -2.14841300	     3.57459900	     2.67385800
 H	    -1.73026200	     1.27872400	     1.86274400
 H	    -3.04736200	    -2.49769900	    -1.83419700
 H	    -5.23730600	    -3.64374100	    -1.77541200
 H	    -7.18840100	    -2.55208500	    -0.68169600
 H	    -6.92092800	    -0.31216600	     0.36516400
 H	    -4.72587500	     0.81987300	     0.33708000

