58
L58.xyz
 C	     1.02518800	     5.80145500	     0.94571500
 O	     0.01294000	     4.81175200	     0.77915500
 C	     0.39770200	     3.57654100	     0.36501400
 C	     1.71396400	     3.20413000	     0.07270100
 C	     1.98799600	     1.89558900	    -0.32875000
 C	     0.98847600	     0.92509100	    -0.47291300
 P	     1.42864600	    -0.77397400	    -1.07778700
 C	     0.68033700	    -1.86949200	     0.20759900
 C	     0.45122900	    -3.20645900	    -0.15340000
 C	    -0.12709600	    -4.10113100	     0.74846800
 C	    -0.49961800	    -3.66598900	     2.02282400
 C	    -0.27854900	    -2.33755600	     2.39194100
 C	     0.31186900	    -1.44645000	     1.49335200
 C	     3.21833200	    -0.85132300	    -0.61179400
 C	     4.15669600	    -0.75100100	    -1.64964200
 C	     5.52715300	    -0.78751400	    -1.37991200
 C	     5.97449600	    -0.93754500	    -0.06647800
 C	     5.04797300	    -1.04793400	     0.97497600
 C	     3.68058300	    -1.00306300	     0.70484200
 C	    -0.34360700	     1.33071600	    -0.19939300
 C	    -1.48642400	     0.40011300	    -0.28806300
 N	    -2.47577000	     0.36038900	     0.51897100
 C	    -3.37344200	    -0.71711700	     0.05575900
 C	    -4.77651500	    -0.17416500	    -0.32961400
 C	    -5.39674600	     0.50005100	     0.90485400
 C	    -5.66337000	    -1.35572700	    -0.75485100
 C	    -4.67729100	     0.84792200	    -1.47234500
 C	    -2.57560000	    -1.39278100	    -1.08986000
 O	    -1.45722000	    -0.49286600	    -1.31416900
 C	    -0.62228800	     2.62850700	     0.22912800
 H	     1.76196600	     5.49741400	     1.69958400
 H	     1.53803900	     6.01325500	    -0.00058900
 H	     0.50948800	     6.70118800	     1.28633200
 H	     2.53046500	     3.91099400	     0.16194400
 H	     3.02103400	     1.63186300	    -0.52569100
 H	     0.71945900	    -3.54560300	    -1.15111600
 H	    -0.29594500	    -5.13317300	     0.45291800
 H	    -0.96074100	    -4.35745000	     2.72267500
 H	    -0.56612500	    -1.99118900	     3.38099600
 H	     0.47529100	    -0.41678500	     1.79357600
 H	     3.81130900	    -0.64220400	    -2.67490500
 H	     6.24164600	    -0.70535300	    -2.19454200
 H	     7.03951500	    -0.97275200	     0.14629100
 H	     5.39235200	    -1.16824300	     1.99878900
 H	     2.96988400	    -1.08960200	     1.52070400
 H	    -3.51137300	    -1.42331200	     0.88280300
 H	    -6.40254600	     0.87208500	     0.67498900
 H	    -4.78636600	     1.34362000	     1.24145600
 H	    -5.48284900	    -0.20786500	     1.73903000
 H	    -5.73379100	    -2.10428500	     0.04438200
 H	    -6.67915400	    -1.00910100	    -0.97958600
 H	    -5.28134800	    -1.85611300	    -1.65245200
 H	    -5.67317500	     1.22853100	    -1.72837600
 H	    -4.05523500	     1.70231500	    -1.18464600
 H	    -4.25079800	     0.40873700	    -2.38182000
 H	    -3.11418700	    -1.48661300	    -2.03353800
 H	    -2.16691600	    -2.36512500	    -0.80456100
 H	    -1.64364500	     2.91135800	     0.45853400

