101
L6.xyz
 C	     6.42018500	     4.06416600	    -2.01987800
 C	     7.11803000	     2.89576300	    -1.36731800
 C	     8.50645200	     2.90571200	    -1.17962000
 C	     9.17165300	     1.82412100	    -0.59101000
 C	    10.67269200	     1.83534700	    -0.43204300
 C	     8.42127600	     0.71730100	    -0.17864600
 C	     7.03061000	     0.67682300	    -0.35234800
 C	     6.23302100	    -0.48737900	     0.10064000
 C	     6.53910500	    -1.14818000	     1.30528500
 C	     5.74531800	    -2.19113400	     1.78434200
 C	     4.63241400	    -2.59602100	     1.04797600
 C	     4.35408200	    -1.98073700	    -0.17679000
 C	     5.12655300	    -0.92601100	    -0.64627600
 C	     3.12581000	    -2.58632200	    -0.82456100
 N	     2.08578000	    -1.57949800	    -1.09700500
 C	     1.21818200	    -1.70985900	    -0.17191600
 C	     0.00980500	    -0.82639000	     0.03350700
 C	    -0.16978200	     0.07307000	    -1.23356300
 C	    -1.51213400	     0.76052300	    -1.33898900
 C	    -2.51407500	     0.19437000	    -2.13968400
 C	    -3.75454900	     0.81372700	    -2.28323100
 C	    -4.02505200	     2.00760800	    -1.61288200
 C	    -3.03962800	     2.58084700	    -0.80671400
 C	    -1.79266400	     1.96519300	    -0.67928500
 C	     0.19561900	     0.01710900	     1.33712500
 C	     1.54287900	     0.68781100	     1.48359800
 C	     1.83166100	     1.92845000	     0.89701500
 C	     3.08266100	     2.52673200	     1.06125200
 C	     4.06436900	     1.90140200	     1.83185600
 C	     3.78395100	     0.67534800	     2.43740000
 C	     2.54010600	     0.07240700	     2.25487300
 C	    -1.20986500	    -1.70465500	     0.19952600
 N	    -2.09905500	    -1.59267500	     1.10570400
 C	    -3.13017900	    -2.59794100	     0.78926500
 C	    -4.34884100	    -1.99094100	     0.12444100
 C	    -5.15230200	    -0.96276700	     0.60158600
 C	    -6.23587800	    -0.50987800	    -0.16955700
 C	    -7.05938800	     0.63700800	     0.28462200
 C	    -8.44030600	     0.68088700	     0.04081500
 C	    -9.21451500	     1.77279400	     0.44666700
 C	   -10.70672100	     1.78407300	     0.21984600
 C	    -8.58321000	     2.83947200	     1.09812300
 C	    -7.20652200	     2.82732900	     1.35358500
 C	    -6.53220900	     4.00762800	     2.00961000
 C	    -6.45834100	     1.71793700	     0.94855000
 C	    -6.49627000	    -1.13727900	    -1.40270000
 C	    -5.67878400	    -2.16141400	    -1.88378900
 C	    -4.58661800	    -2.57799200	    -1.12294300
 C	    -3.54279900	    -3.62258100	    -1.45192000
 C	    -2.50587400	    -3.48293700	    -0.32817300
 O	    -1.35468100	    -2.67946600	    -0.74323000
 O	     1.38733800	    -2.70233500	     0.74629700
 C	     2.53267800	    -3.49329000	     0.29151800
 C	     3.59934500	    -3.64853700	     1.38601400
 C	     6.39298400	     1.77729900	    -0.94780200
 H	     6.86503200	     5.01857100	    -1.71667300
 H	     6.49390000	     4.00679500	    -3.11445200
 H	     5.35549300	     4.08498000	    -1.76474600
 H	     9.08025400	     3.77494400	    -1.49524100
 H	    11.05744200	     2.85643600	    -0.33755800
 H	    11.16496900	     1.38091000	    -1.30268900
 H	    10.98668400	     1.26728800	     0.45042800
 H	     8.93005500	    -0.13232300	     0.26951200
 H	     7.38275000	    -0.80566900	     1.89737800
 H	     5.98029900	    -2.65810600	     2.73759300
 H	     4.87537200	    -0.44240500	    -1.58525600
 H	     3.37111100	    -3.13112500	    -1.74144200
 H	     0.64687600	     0.79754500	    -1.23542200
 H	    -0.02452200	    -0.56097200	    -2.11052900
 H	    -2.31380000	    -0.74076300	    -2.65462000
 H	    -4.51497700	     0.35797400	    -2.90822300
 H	    -4.99466100	     2.48529500	    -1.71717400
 H	    -3.23667700	     3.51277600	    -0.28336900
 H	    -1.02939400	     2.43252900	    -0.06641300
 H	    -0.61361700	     0.75023600	     1.36431000
 H	     0.03683600	    -0.65010800	     2.18750400
 H	     1.07431900	     2.44025300	     0.31242800
 H	     3.28676000	     3.48617300	     0.59322100
 H	     5.03749400	     2.36623600	     1.96072600
 H	     4.53945600	     0.17943600	     3.03764400
 H	     2.33185600	    -0.88497700	     2.72325800
 H	    -3.39037700	    -3.15908600	     1.69211300
 H	    -4.93822300	    -0.50512800	     1.56261000
 H	    -8.92364000	    -0.15844100	    -0.45238500
 H	   -10.98525300	     1.16832300	    -0.64201400
 H	   -11.07801200	     2.80059700	     0.04935500
 H	   -11.24190900	     1.38549600	     1.09248800
 H	    -9.17548100	     3.69730600	     1.41102500
 H	    -5.61048800	     3.70843100	     2.51962700
 H	    -6.26164700	     4.76968900	     1.26591400
 H	    -7.18941900	     4.48963800	     2.74181100
 H	    -5.38573400	     1.71061100	     1.11726000
 H	    -7.32206200	    -0.78383200	    -2.01302200
 H	    -5.88064600	    -2.60700400	    -2.85470300
 H	    -3.96562700	    -4.63525100	    -1.44325600
 H	    -3.08513200	    -3.47623200	    -2.43617300
 H	    -2.11061900	    -4.43977200	     0.01897200
 H	     2.13349600	    -4.44655700	    -0.06058500
 H	     4.02299900	    -4.66029800	     1.34782200
 H	     3.16856900	    -3.52071800	     2.38517600
 H	     5.31194200	     1.77384200	    -1.05206800

