58
L62.xyz
 C	     6.05981300	    -1.70267700	    -0.04074600
 C	     5.03324500	    -1.89172200	     0.88872100
 C	     3.74833400	    -1.41766700	     0.62277700
 C	     3.46875300	    -0.75065500	    -0.57984700
 P	     1.80741700	    -0.08546800	    -1.05420600
 C	     0.69447200	    -1.16785600	    -0.05581400
 C	     0.12513800	    -2.27620700	    -0.70100000
 C	    -0.68213200	    -3.17285400	     0.00110500
 C	    -0.93806300	    -2.96783300	     1.35877900
 C	    -0.39148400	    -1.85787600	     2.00668400
 C	     0.41904900	    -0.96331300	     1.30479500
 C	     1.75933200	     1.49558200	    -0.07347800
 C	     2.94694200	     2.02683400	     0.45342800
 C	     2.96100900	     3.22099900	     1.17396700
 C	     1.77321500	     3.91609900	     1.40080600
 C	     0.58392300	     3.41448500	     0.88310200
 C	     0.56205400	     2.22528100	     0.13841200
 C	    -0.75312600	     1.79500600	    -0.37274700
 N	    -1.88774400	     2.10795100	     0.12891600
 C	    -2.92222100	     1.54048100	    -0.76212700
 C	    -4.07759200	     0.89446100	     0.01486900
 C	    -3.63814600	    -0.28918500	     0.92295800
 C	    -4.14367800	    -1.64529800	     0.41569400
 C	    -5.68070100	    -1.68196800	     0.31653500
 C	    -6.26772300	    -0.34327800	    -0.19926000
 C	    -5.21333900	     0.48286700	    -0.94296600
 C	    -2.12320400	     0.59994100	    -1.69184700
 O	    -0.74779700	     1.03173900	    -1.50188000
 C	     4.50516600	    -0.57761300	    -1.51093500
 C	     5.79422700	    -1.04223600	    -1.24166100
 H	     7.05971300	    -2.07292000	     0.16863700
 H	     5.23425100	    -2.40882400	     1.82334100
 H	     2.96084500	    -1.56975400	     1.35360300
 H	     0.31789500	    -2.43803200	    -1.75872000
 H	    -1.11352700	    -4.02810000	    -0.51183900
 H	    -1.56479600	    -3.66527800	     1.90711800
 H	    -0.59401700	    -1.68748400	     3.06058300
 H	     0.84060300	    -0.10652600	     1.82042900
 H	     3.87956700	     1.49447700	     0.30859700
 H	     3.90160900	     3.59922900	     1.56481600
 H	     1.77262500	     4.84182800	     1.96849400
 H	    -0.35277500	     3.93886800	     1.03935300
 H	    -3.34146200	     2.37267600	    -1.34665200
 H	    -4.47304300	     1.68744800	     0.66222700
 H	    -4.03064500	    -0.12813000	     1.93517000
 H	    -2.54806600	    -0.30596500	     1.02392500
 H	    -3.79105100	    -2.44639100	     1.07490300
 H	    -3.70677100	    -1.85173300	    -0.56932300
 H	    -6.10602800	    -1.91035400	     1.30203300
 H	    -5.97787700	    -2.50466200	    -0.34586000
 H	    -7.13468300	    -0.52944000	    -0.84405200
 H	    -6.63486900	     0.25327400	     0.64681400
 H	    -5.66413200	     1.38087300	    -1.38364600
 H	    -4.81216900	    -0.10563700	    -1.78036700
 H	    -2.17987700	    -0.45254600	    -1.40002000
 H	    -2.36170600	     0.70233100	    -2.75087400
 H	     4.30035300	    -0.07347400	    -2.45252800
 H	     6.58580600	    -0.89609600	    -1.97165100

