52
L63.xyz
 C	    -4.99429500	    -2.11551900	    -1.98354700
 C	    -5.60697900	    -1.65994200	    -0.81372100
 C	    -4.95330000	    -0.73585200	     0.00316300
 C	    -3.68600500	    -0.25158200	    -0.34180800
 C	    -3.01858100	     0.79091400	     0.52927500
 C	    -3.39035600	     2.25250600	     0.14191000
 O	    -2.11197800	     2.93905000	     0.09322900
 C	    -1.16027700	     1.96833700	     0.20798100
 C	     0.23831100	     2.39796800	     0.07924700
 C	     0.52273200	     3.76674000	     0.20014300
 C	     1.83118000	     4.23412600	     0.12400900
 C	     2.86978800	     3.32653200	    -0.07934700
 C	     2.59446300	     1.96522500	    -0.21565200
 C	     1.28588200	     1.46500800	    -0.14225800
 P	     0.93234900	    -0.32954300	    -0.47927600
 C	     0.74901400	    -1.03520500	     1.21158400
 C	     1.23032800	    -0.40994100	     2.36967300
 C	     1.06025100	    -1.00832200	     3.61987600
 C	     0.41179900	    -2.24083400	     3.72639600
 C	    -0.07018400	    -2.87136800	     2.57658500
 C	     0.09332100	    -2.26926900	     1.32854900
 C	     2.61865400	    -0.94223300	    -0.93852200
 C	     2.97449900	    -0.85486900	    -2.29520000
 C	     4.21621900	    -1.30783100	    -2.74076800
 C	     5.11741500	    -1.87629800	    -1.83673400
 C	     4.76985100	    -1.98296600	    -0.48847000
 C	     3.53133100	    -1.51715800	    -0.04144100
 N	    -1.55161900	     0.77166800	     0.43354000
 C	    -3.07773700	    -0.71072100	    -1.51550300
 C	    -3.72720400	    -1.64011000	    -2.32981800
 H	    -5.49825200	    -2.84023500	    -2.61725800
 H	    -6.58986200	    -2.02895900	    -0.53292600
 H	    -5.42757700	    -0.39023200	     0.91895300
 H	    -3.29232400	     0.59581800	     1.57354400
 H	    -3.84831400	     2.32055600	    -0.84926700
 H	    -4.02286400	     2.75434400	     0.87632900
 H	    -0.29501000	     4.45963100	     0.36311000
 H	     2.03585800	     5.29584600	     0.22489300
 H	     3.89807000	     3.67310300	    -0.13444600
 H	     3.41766300	     1.28092300	    -0.38209600
 H	     1.73794500	     0.54705400	     2.29581900
 H	     1.43583600	    -0.51148500	     4.51071100
 H	     0.27933600	    -2.70538500	     4.69976600
 H	    -0.58127600	    -3.82744700	     2.65233900
 H	    -0.30207400	    -2.75402300	     0.43925900
 H	     2.27212100	    -0.42593800	    -3.00657800
 H	     4.47641500	    -1.22643900	    -3.79278000
 H	     6.08174800	    -2.23869700	    -2.18236600
 H	     5.46495100	    -2.42720600	     0.21927700
 H	     3.27738800	    -1.59993900	     1.01020200
 H	    -2.08790500	    -0.35056200	    -1.77726500
 H	    -3.24066700	    -1.99568400	    -3.23428300

