63
L66.xyz
 C	    -5.87422200	    -0.62995400	     2.09240800
 C	    -4.55991600	     0.11641200	     2.37261300
 C	    -3.97371900	    -0.37572700	     3.70584500
 C	    -4.81531500	     1.62876800	     2.45496500
 C	    -3.55164500	    -0.21708400	     1.24373800
 C	    -3.97183900	     0.21022300	    -0.18918000
 O	    -2.90643900	     1.10356500	    -0.62412400
 C	    -2.00174500	     1.12164300	     0.38894500
 C	    -0.76871000	     1.89369700	     0.13915500
 C	    -0.88127500	     3.12969300	    -0.50336400
 C	     0.25135800	     3.90556000	    -0.73917000
 C	     0.12811100	     5.21140300	    -1.46728700
 F	    -1.07840900	     5.79094600	    -1.27756700
 F	     0.27681800	     5.05629300	    -2.80686200
 F	     1.06852300	     6.10093700	    -1.07617400
 C	     1.50684300	     3.43774200	    -0.34998200
 C	     1.62345000	     2.19086500	     0.25921000
 C	     0.50080300	     1.38880000	     0.50959000
 P	     0.69306000	    -0.25039600	     1.36808000
 C	     2.45676900	    -0.64078800	     0.95627900
 C	     3.40197400	    -0.42318800	     1.97008300
 C	     4.75538200	    -0.67771100	     1.75318700
 C	     5.17312600	    -1.17013500	     0.51562900
 C	     6.61856200	    -1.50715100	     0.29207800
 F	     6.99122000	    -1.32246000	    -0.99526600
 F	     7.44297300	    -0.75852500	     1.05898400
 F	     6.88533100	    -2.80385900	     0.58821300
 C	     4.24216500	    -1.40690300	    -0.50028100
 C	     2.89365900	    -1.14001400	    -0.27975900
 C	    -0.22774000	    -1.36606300	     0.21767200
 C	    -0.42168300	    -1.09280400	    -1.14511400
 C	    -1.24437800	    -1.90454400	    -1.92010900
 C	    -1.87234000	    -3.01039300	    -1.34029900
 C	    -2.87212300	    -3.78663000	    -2.14229900
 F	    -4.08818900	    -3.17442400	    -2.13436700
 F	    -3.06644900	    -5.03522700	    -1.66529900
 F	    -2.51298500	    -3.90227300	    -3.44073400
 C	    -1.65233900	    -3.32271800	     0.00285600
 C	    -0.83278600	    -2.50096600	     0.77424900
 N	    -2.25400200	     0.45417000	     1.44565700
 H	    -6.34527700	    -0.29718000	     1.15981300
 H	    -6.59204700	    -0.45785500	     2.90317100
 H	    -5.70546400	    -1.71166300	     2.01772100
 H	    -3.78190500	    -1.45589500	     3.67637300
 H	    -4.67200400	    -0.18071600	     4.52862400
 H	    -3.02808000	     0.12749600	     3.93020900
 H	    -3.88487700	     2.17356900	     2.64870900
 H	    -5.25442800	     2.02379800	     1.53106400
 H	    -5.51375900	     1.85185700	     3.27007100
 H	    -3.37334500	    -1.29838100	     1.27422700
 H	    -4.00981200	    -0.62666200	    -0.89014400
 H	    -4.90926800	     0.76713200	    -0.23689900
 H	    -1.86034400	     3.48481200	    -0.80363100
 H	     2.39413500	     4.03552800	    -0.53016600
 H	     2.61128000	     1.83721000	     0.53044300
 H	     3.07831800	    -0.04805900	     2.93711600
 H	     5.47762300	    -0.49726100	     2.54210400
 H	     4.56999900	    -1.79039500	    -1.46092900
 H	     2.18284100	    -1.32482400	    -1.07729900
 H	     0.03944600	    -0.22242000	    -1.59903300
 H	    -1.40952900	    -1.66969000	    -2.96659000
 H	    -2.13560100	    -4.18456400	     0.45014600
 H	    -0.69632600	    -2.72247200	     1.82877700

