78
L68.xyz
 C	    -4.01727200	     4.24519000	     2.78366200
 C	    -2.62468800	     4.18440800	     2.67140700
 C	    -2.03170800	     3.23549300	     1.84082700
 C	    -2.81832500	     2.31382600	     1.12576800
 P	    -1.92655900	     1.15435900	     0.00574600
 C	    -3.26310500	     0.06232900	    -0.64501500
 C	    -4.01034900	    -0.80310300	     0.17006400
 C	    -4.97240800	    -1.64457200	    -0.38689900
 C	    -5.19341000	    -1.63878100	    -1.76754700
 C	    -4.45292300	    -0.78559900	    -2.58691300
 C	    -3.49467800	     0.06194300	    -2.02697900
 C	    -1.12521800	    -0.00078500	     1.21759200
 C	    -1.41843700	     0.01833600	     2.60735600
 C	    -0.77115300	    -0.82487500	     3.48012000
 C	     0.20007800	    -1.74773300	     3.01567800
 C	     0.89476100	    -2.61595700	     3.90018500
 C	     1.83669800	    -3.49910400	     3.42399900
 C	     2.11829800	    -3.55825100	     2.03668200
 C	     1.46006600	    -2.73290300	     1.15424300
 C	     0.49224100	    -1.79767200	     1.61429400
 C	    -0.17330700	    -0.89384100	     0.72879500
 C	     0.17328600	    -0.89398600	    -0.72867200
 C	     1.12523400	    -0.00105200	    -1.21761500
 P	     1.92656800	     1.15428000	    -0.00593900
 C	     3.26316800	     0.06239400	     0.64494800
 C	     3.49476700	     0.06224200	     2.02691000
 C	     4.45308600	    -0.78514000	     2.58696400
 C	     5.19358500	    -1.63843000	     1.76772300
 C	     4.97254200	    -1.64447200	     0.38708300
 C	     4.01043700	    -0.80313400	    -0.17000300
 C	     2.81824700	     2.31366600	    -1.12611800
 C	     4.21295100	     2.38698900	    -1.24113400
 C	     4.80699900	     3.34897900	    -2.06290700
 C	     4.01709400	     4.24492600	    -2.78420600
 C	     2.62450900	     4.18398700	    -2.67205800
 C	     2.03157600	     3.23512500	    -1.84138100
 C	     1.41850800	     0.01777800	    -2.60737400
 C	     0.77121900	    -0.82558100	    -3.47999000
 C	    -0.20006100	    -1.74831200	    -3.01539500
 C	    -0.89475300	    -2.61667400	    -3.89975900
 C	    -1.83672300	    -3.49971000	    -3.42343200
 C	    -2.11834500	    -3.55860000	    -2.03610800
 C	    -1.46010900	    -2.73310800	    -1.15380700
 C	    -0.49225700	    -1.79798200	    -1.61401000
 C	    -4.21302800	     2.38699500	     1.24089200
 C	    -4.80712700	     3.34903800	     2.06256400
 H	    -4.48129600	     4.98968600	     3.42474800
 H	    -2.00149300	     4.88149200	     3.22522800
 H	    -0.94818300	     3.20093500	     1.74989900
 H	    -3.83133800	    -0.82397500	     1.24104300
 H	    -5.54430200	    -2.31082400	     0.25355000
 H	    -5.93552900	    -2.30289800	    -2.20219700
 H	    -4.61306600	    -0.78543300	    -3.66144700
 H	    -2.90616200	     0.71230300	    -2.66857100
 H	    -2.15806600	     0.71490500	     2.98573600
 H	    -0.99952500	    -0.79413800	     4.54272500
 H	     0.66825100	    -2.56582100	     4.96228700
 H	     2.36656100	    -4.15505300	     4.10909100
 H	     2.86451500	    -4.25654700	     1.66922600
 H	     1.68714800	    -2.77569500	     0.09542800
 H	     2.90623600	     0.71268400	     2.66840600
 H	     4.61326300	    -0.78477600	     3.66149200
 H	     5.93575300	    -2.30243300	     2.20246500
 H	     5.54445600	    -2.31080100	    -0.25326700
 H	     3.83141900	    -0.82417400	    -1.24097700
 H	     4.84018700	     1.69260200	    -0.69220500
 H	     5.89021900	     3.39268700	    -2.14086300
 H	     4.48107800	     4.98937500	    -3.42537500
 H	     2.00127200	     4.88090900	    -3.22603600
 H	     0.94804800	     3.20044400	    -1.75054200
 H	     2.15818300	     0.71423700	    -2.98586600
 H	     0.99962500	    -0.79506200	    -4.54259300
 H	    -0.66822400	    -2.56672800	    -4.96186600
 H	    -2.36659600	    -4.15576500	    -4.10841400
 H	    -2.86458100	    -4.25681500	    -1.66854000
 H	    -1.68720900	    -2.77570700	    -0.09498800
 H	    -4.84022500	     1.69245300	     0.69211400
 H	    -5.89034600	     3.39262400	     2.14060000

