93
L69.xyz
 C	    -7.22464700	    -0.22252000	    -1.48984100
 C	    -6.08349300	    -0.31674900	    -2.51522100
 C	    -6.53432800	    -1.26307100	    -3.64741600
 C	    -5.82924500	     1.09152300	    -3.09512700
 C	    -4.77964900	    -0.82838400	    -1.88837300
 C	    -3.66963500	    -1.10612400	    -2.70384300
 C	    -2.46232400	    -1.54610400	    -2.16713200
 C	    -2.30630100	    -1.71665700	    -0.78484200
 C	    -0.99155800	    -2.15026800	    -0.18592400
 C	    -0.02377600	    -0.96555900	     0.15642900
 C	     0.36740100	    -0.21226900	    -1.15348300
 C	     1.57765300	     0.69063000	    -1.08331600
 C	     1.48139000	     2.03245300	    -0.70238000
 C	     2.61045600	     2.85278700	    -0.66166100
 C	     3.87979700	     2.36949100	    -1.00707100
 C	     5.14054500	     3.24445700	    -0.98588300
 C	     5.74735600	     3.29701800	    -2.40424300
 C	     4.84660900	     4.68313600	    -0.53246300
 C	     6.17276600	     2.63241200	    -0.01559300
 C	     3.96756100	     1.02215500	    -1.39506300
 C	     2.84351900	     0.20063500	    -1.43160100
 C	    -0.72050400	    -0.05082200	     1.13635000
 N	    -1.12837600	     1.13670100	     0.92082600
 C	    -1.83406000	     1.56593800	     2.14439500
 C	    -3.33677000	     1.59913000	     1.96668200
 C	    -4.07488800	     2.37116200	     1.07210100
 C	    -5.46656700	     2.24828900	     1.06248200
 C	    -6.10399400	     1.35579700	     1.93346500
 C	    -5.35802800	     0.57125300	     2.81799800
 C	    -3.96846100	     0.69776900	     2.83054500
 C	    -2.96976500	    -0.02434500	     3.70859300
 C	    -1.59805400	     0.41632900	     3.17089000
 O	    -0.98379700	    -0.61748600	     2.34887500
 C	     1.22058100	    -1.54204400	     0.80042300
 N	     1.70794700	    -2.69632000	     0.55947900
 C	     2.95980200	    -2.79017300	     1.33711900
 C	     4.19457700	    -2.74011300	     0.46554600
 C	     4.56989300	    -3.63683200	    -0.53386000
 C	     5.75035000	    -3.40256700	    -1.24383500
 C	     6.54484200	    -2.28883800	    -0.94460500
 C	     6.16151700	    -1.39107500	     0.05565800
 C	     4.97265100	    -1.61391900	     0.75165200
 C	     4.35049700	    -0.76257700	     1.83564500
 C	     3.02221800	    -1.46922500	     2.16644800
 O	     1.87202600	    -0.72571800	     1.66935900
 C	    -3.40988900	    -1.44768100	     0.02987600
 C	    -4.62186600	    -1.01314000	    -0.50914500
 H	    -6.99414000	     0.48556300	    -0.68809600
 H	    -7.44057800	    -1.19614600	    -1.03443800
 H	    -8.13799900	     0.12341800	    -1.98740400
 H	    -5.79157200	    -1.33039200	    -4.44883200
 H	    -7.46933200	    -0.90116600	    -4.09220800
 H	    -6.71002600	    -2.27550600	    -3.26477000
 H	    -5.05114600	     1.07269500	    -3.86611200
 H	    -5.50519100	     1.78164300	    -2.30753100
 H	    -6.74473200	     1.49242600	    -3.54810500
 H	    -3.74415500	    -0.97782400	    -3.77970900
 H	    -1.62922800	    -1.76096100	    -2.83130600
 H	    -1.16849800	    -2.71390700	     0.73413900
 H	    -0.45128200	    -2.80999600	    -0.86942900
 H	     0.55467300	    -0.98635500	    -1.90369800
 H	    -0.50989900	     0.35289300	    -1.47477600
 H	     0.51205900	     2.43130600	    -0.42345500
 H	     2.48431800	     3.88657300	    -0.35943200
 H	     5.03612300	     3.72959700	    -3.11769800
 H	     6.01976700	     2.29930500	    -2.76435100
 H	     6.65389900	     3.91489100	    -2.40969200
 H	     4.43500100	     4.71369000	     0.48286300
 H	     4.14028300	     5.18541500	    -1.20319800
 H	     5.77515600	     5.26541200	    -0.53218800
 H	     5.76856000	     2.57437100	     1.00203100
 H	     7.08086500	     3.24730200	     0.01397700
 H	     6.46264700	     1.62288400	    -0.32210000
 H	     4.92744300	     0.59929100	    -1.67358100
 H	     2.95162000	    -0.83865800	    -1.73084300
 H	    -1.43534500	     2.53084000	     2.47279600
 H	    -3.57491300	     3.05309900	     0.38980700
 H	    -6.05797000	     2.84733000	     0.37577600
 H	    -7.18698600	     1.26911200	     1.91832200
 H	    -5.85607700	    -0.12594400	     3.48713100
 H	    -3.07720000	     0.27326300	     4.75899800
 H	    -3.07459600	    -1.11417500	     3.67376800
 H	    -0.88448800	     0.65768600	     3.96074900
 H	     2.93225600	    -3.69193700	     1.95754600
 H	     3.94959300	    -4.49990900	    -0.76048200
 H	     6.05625200	    -4.08950300	    -2.02814400
 H	     7.46607600	    -2.11980700	    -1.49575400
 H	     6.78014900	    -0.52763300	     0.28333000
 H	     4.16768700	     0.26366300	     1.49969800
 H	     4.99014400	    -0.70568200	     2.72442600
 H	     2.86766000	    -1.60444700	     3.23813500
 H	    -3.32338700	    -1.57690100	     1.10444600
 H	    -5.44139400	    -0.81170600	     0.16911600

