91
L70.xyz
 C	     6.21870200	    -2.48026900	    -2.60235800
 C	     5.53797200	    -2.84499800	    -1.26548300
 C	     6.35897100	    -2.25504100	    -0.10044700
 C	     5.53464400	    -4.37550600	    -1.12681700
 C	     4.12141300	    -2.25486700	    -1.24470100
 C	     2.96973900	    -3.04307100	    -1.13737400
 C	     1.69427500	    -2.47227700	    -1.15231200
 C	     1.51293100	    -1.09176300	    -1.27295700
 C	     0.12743300	    -0.48694200	    -1.31692600
 C	    -0.35228900	     0.15572500	     0.02409600
 C	    -0.53078000	    -0.90745200	     1.15791300
 C	    -1.81052400	    -1.70206000	     1.04868900
 C	    -1.89390700	    -2.89112100	     0.32043700
 C	    -3.10778400	    -3.56779100	     0.17095900
 C	    -4.28806400	    -3.08490700	     0.74859300
 C	    -5.64580700	    -3.78027800	     0.58507800
 C	    -5.55341500	    -5.04351000	    -0.28506500
 C	    -6.18716100	    -4.18471500	     1.97275800
 C	    -6.63605400	    -2.80235900	    -0.08360400
 C	    -4.19252200	    -1.90633100	     1.50889600
 C	    -2.98402600	    -1.23300300	     1.65939200
 C	     0.63538000	     1.21267300	     0.46353400
 N	     1.26944400	     1.26020500	     1.56482700
 C	     2.11839700	     2.46387000	     1.53259200
 C	     3.58993900	     2.15191500	     1.73247900
 C	     4.05695600	     0.84112300	     1.86269500
 C	     5.41975700	     0.59336700	     2.04898800
 C	     6.33008200	     1.65028500	     2.09182000
 C	     5.86971800	     2.96332200	     1.95517300
 C	     4.50823500	     3.21041700	     1.78283700
 C	     1.79799200	     3.11853400	     0.15441200
 O	     0.85252300	     2.19936000	    -0.45344500
 C	    -1.67764200	     0.86477500	    -0.18344300
 N	    -2.12522500	     1.79425000	     0.56791200
 C	    -3.42764500	     2.20786800	     0.00765500
 C	    -3.37282400	     3.62021100	    -0.54542900
 C	    -2.19177100	     4.13516900	    -1.09432900
 C	    -2.17220000	     5.41598700	    -1.64955800
 C	    -3.33078600	     6.19632300	    -1.66369000
 C	    -4.51130100	     5.68892000	    -1.11574000
 C	    -4.52909300	     4.40916300	    -0.55841200
 C	    -3.71190200	     1.13048800	    -1.07978400
 O	    -2.44167600	     0.43844000	    -1.21792400
 C	     2.66535800	    -0.29796200	    -1.38235000
 C	     3.93576000	    -0.86648000	    -1.36321500
 H	     7.23427900	    -2.89346300	    -2.63763200
 H	     6.29360400	    -1.39587000	    -2.73589500
 H	     5.65611000	    -2.88634900	    -3.45129600
 H	     7.37859500	    -2.65976100	    -0.11064000
 H	     5.90243200	    -2.50751400	     0.86366200
 H	     6.42968100	    -1.16499800	    -0.16416500
 H	     6.56532500	    -4.74772100	    -1.14288600
 H	     4.99490500	    -4.85863700	    -1.94927900
 H	     5.08020800	    -4.69744200	    -0.18280700
 H	     3.04987700	    -4.12074200	    -1.05043000
 H	     0.82581500	    -3.12144300	    -1.09342700
 H	     0.08662100	     0.28260600	    -2.09306700
 H	    -0.60323300	    -1.25220800	    -1.58838200
 H	    -0.51335300	    -0.37146500	     2.10893700
 H	     0.34449200	    -1.56329000	     1.13876800
 H	    -1.00017500	    -3.30458200	    -0.13630000
 H	    -3.11871900	    -4.48334800	    -0.40970800
 H	    -4.88393200	    -5.79218600	     0.15358300
 H	    -6.54570200	    -5.49947700	    -0.37758100
 H	    -5.19693200	    -4.81580500	    -1.29615500
 H	    -5.50276400	    -4.88117000	     2.47132100
 H	    -6.31801300	    -3.31597500	     2.62656600
 H	    -7.16170900	    -4.67814900	     1.87224800
 H	    -6.27439700	    -2.49590000	    -1.07242100
 H	    -6.78042700	    -1.89809900	     0.51730300
 H	    -7.61557800	    -3.27919000	    -0.21196100
 H	    -5.07679900	    -1.50485100	     1.99564200
 H	    -2.94727700	    -0.32214000	     2.25005100
 H	     1.79528500	     3.12997600	     2.34119600
 H	     3.35049800	     0.01974700	     1.82111400
 H	     5.76785700	    -0.42890200	     2.15891100
 H	     7.38944700	     1.45452700	     2.23404100
 H	     6.56973900	     3.79394700	     1.98948900
 H	     4.15199800	     4.23410100	     1.68762300
 H	     2.66700000	     3.19708000	    -0.50231500
 H	     1.31000100	     4.09139400	     0.24301700
 H	    -4.19167300	     2.16223900	     0.78971400
 H	    -1.28577100	     3.53738400	    -1.07314600
 H	    -1.24866200	     5.80614300	    -2.06950800
 H	    -3.31308400	     7.19394500	    -2.09402800
 H	    -5.41616000	     6.29086600	    -1.11637400
 H	    -5.44795700	     4.01838000	    -0.12706700
 H	    -3.98302500	     1.53969000	    -2.05402700
 H	    -4.45568400	     0.39631000	    -0.75908400
 H	     2.56629600	     0.77621200	    -1.50040500
 H	     4.79770300	    -0.21200900	    -1.45144400

