131
L71.xyz
 C	     7.13953500	    -2.54016600	    -0.42816000
 C	     6.41391200	    -3.27107400	    -1.57903200
 C	     6.56591500	    -4.79518600	    -1.38780800
 C	     7.08664100	    -2.87351700	    -2.90233200
 C	     4.92280300	    -2.91239100	    -1.55689000
 C	     4.23338300	    -2.42556500	    -2.67550900
 C	     2.88372700	    -2.07728400	    -2.59989500
 C	     2.15722300	    -2.20210500	    -1.40908900
 C	     0.71222900	    -1.74281300	    -1.39501900
 C	     0.14807600	    -1.27231700	    -0.02645100
 C	    -0.15370400	    -2.51037200	     0.92160900
 C	    -1.58680900	    -2.63527900	     1.37844900
 C	    -2.53864900	    -3.29453100	     0.59800700
 C	    -3.88453200	    -3.33119400	     0.97407800
 C	    -4.32632600	    -2.71148000	     2.14885100
 C	    -5.79839800	    -2.69731800	     2.58211600
 C	    -6.68878100	    -3.53360100	     1.64940100
 C	    -5.92639100	    -3.26719400	     4.01048700
 C	    -6.30982000	    -1.24009300	     2.56438300
 C	    -3.35902100	    -2.05991600	     2.93614800
 C	    -2.01994900	    -2.02198200	     2.56136900
 C	     1.08969500	    -0.28329400	     0.63182500
 N	     1.45075200	    -0.24621000	     1.84902200
 C	     2.24090800	     0.97895500	     2.04186100
 C	     3.57912300	     0.71396300	     2.68939900
 C	     4.38611700	    -0.34749800	     2.26275600
 C	     5.65465600	    -0.53281100	     2.80878100
 C	     6.12987400	     0.33738600	     3.79462700
 C	     5.32402800	     1.38801800	     4.23612500
 C	     4.05345400	     1.57173800	     3.68533600
 C	     2.30908300	     1.64202300	     0.58796700
 O	     1.52491200	     0.69791300	    -0.20328300
 C	    -1.14278400	    -0.49930100	    -0.23279100
 N	    -1.64775400	     0.31420100	     0.60335900
 C	    -3.02667400	     0.57645500	     0.16342600
 C	    -3.45893500	     2.00073900	     0.40881900
 C	    -2.59170300	     3.06903900	     0.15100200
 C	    -3.00928600	     4.38259100	     0.35502700
 C	    -4.29761500	     4.64746800	     0.82874900
 C	    -5.15840100	     3.58729400	     1.11604200
 C	    -4.73528800	     2.27154800	     0.91393100
 C	    -3.04115100	     0.05366100	    -1.34271100
 O	    -1.85433100	    -0.80378400	    -1.34781100
 C	     2.83460900	    -2.72393100	    -0.29891700
 C	     4.18316300	    -3.06781300	    -0.37598600
 H	     8.21435100	    -2.75596500	    -0.46245500
 H	     6.76998700	    -2.85940300	     0.55161000
 H	     7.00384800	    -1.45560100	    -0.50037800
 H	     7.62613700	    -5.07716800	    -1.38220500
 H	     6.07176200	    -5.34282000	    -2.19906200
 H	     6.12404000	    -5.12509800	    -0.44110600
 H	     8.15204300	    -3.12722400	    -2.86402700
 H	     7.00721000	    -1.79623500	    -3.08998200
 H	     6.65238100	    -3.40270600	    -3.75792500
 H	     4.74822700	    -2.28942500	    -3.61993900
 H	     2.39157600	    -1.67318200	    -3.48177900
 H	     0.61569600	    -0.93082700	    -2.11965200
 H	     0.05545400	    -2.54374000	    -1.75401700
 H	     0.49874100	    -2.42594400	     1.79213300
 H	     0.12743300	    -3.41395700	     0.37557100
 H	    -2.23337000	    -3.77408900	    -0.32846700
 H	    -4.58738900	    -3.84027500	     0.32505400
 H	    -6.37723700	    -4.58444200	     1.62755900
 H	    -7.72534400	    -3.50094800	     2.00453900
 H	    -6.67669900	    -3.15112100	     0.62370700
 H	    -5.55941300	    -4.29954600	     4.05367900
 H	    -5.35995000	    -2.67805900	     4.73910800
 H	    -6.97683900	    -3.26646500	     4.32637600
 H	    -6.25345300	    -0.82570800	     1.55186800
 H	    -5.72181000	    -0.59721800	     3.22812900
 H	    -7.35601900	    -1.19689800	     2.89240100
 H	    -3.65726600	    -1.56111000	     3.85362100
 H	    -1.30056600	    -1.48475100	     3.17344200
 H	     1.66313800	     1.63483800	     2.69753200
 H	     4.02650000	    -1.01684800	     1.48944100
 H	     6.27588400	    -1.35315900	     2.45966500
 H	     7.12071400	     0.19452700	     4.21733800
 H	     5.68178800	     2.06400100	     5.00814400
 H	     3.42663900	     2.39192300	     4.02751900
 H	    -3.67358800	    -0.08885300	     0.74638500
 H	    -1.58760400	     2.86815000	    -0.20264400
 H	    -2.32371800	     5.19894500	     0.14966700
 H	    -4.62186800	     5.67275500	     0.98589100
 H	    -6.15369600	     3.78017700	     1.50740500
 H	    -5.39772500	     1.44776900	     1.16566600
 H	     2.33093100	    -2.84802400	     0.65086500
 H	     4.66642500	    -3.45399700	     0.51628900
 C	    -4.23158100	    -0.82392000	    -1.68517000
 C	    -5.52208800	    -0.49683300	    -1.25503900
 C	    -4.05063500	    -1.97463900	    -2.46267100
 C	    -6.60970700	    -1.30781800	    -1.58587200
 H	    -5.68771900	     0.39283200	    -0.65986800
 C	    -5.13476300	    -2.79127100	    -2.78455900
 H	    -3.05602900	    -2.23844600	    -2.80266100
 C	    -6.41981500	    -2.46212900	    -2.34678500
 H	    -7.60335800	    -1.03736900	    -1.23990600
 H	    -4.97366700	    -3.68615000	    -3.37943000
 H	    -7.26421700	    -3.09790200	    -2.59755200
 C	    -2.81753000	     1.17457300	    -2.35442700
 C	    -1.52776400	     1.50500500	    -2.78545500
 C	    -3.89343300	     1.95749500	    -2.79264500
 C	    -1.31644600	     2.59896700	    -3.62736200
 H	    -0.67906300	     0.91709400	    -2.46082900
 C	    -3.68275400	     3.05370900	    -3.62724000
 H	    -4.90195300	     1.72024900	    -2.47332100
 C	    -2.39176700	     3.38205100	    -4.04746600
 H	    -0.30691000	     2.83617800	    -3.95197900
 H	    -4.53073600	     3.65197300	    -3.94889100
 H	    -2.22752500	     4.23564700	    -4.69916700
 C	     3.71582100	     1.71794300	     0.00286300
 C	     4.60863300	     2.69834500	     0.45744900
 C	     4.15288600	     0.79522200	    -0.94921600
 C	     5.91881500	     2.73667500	    -0.01402100
 H	     4.28422900	     3.42929200	     1.19010700
 C	     5.46161200	     0.84488000	    -1.43564400
 H	     3.47692200	     0.03317300	    -1.30904000
 C	     6.35265200	     1.80878200	    -0.96547600
 H	     6.60071500	     3.49577300	     0.35942400
 H	     5.77777300	     0.12076700	    -2.18056000
 H	     7.37316100	     1.84174400	    -1.33707800
 C	     1.62554900	     2.99914900	     0.48623500
 C	     1.65953100	     3.92754800	     1.53128100
 C	     1.02208700	     3.36402400	    -0.72481000
 C	     1.09732600	     5.19652600	     1.37053800
 H	     2.13165200	     3.67428300	     2.47506500
 C	     0.45396100	     4.62652900	    -0.88367100
 H	     0.98924300	     2.65094900	    -1.54007700
 C	     0.49317700	     5.55061500	     0.16412300
 H	     1.13167600	     5.90530000	     2.19324300
 H	    -0.02854700	     4.88257800	    -1.82262900
 H	     0.05514900	     6.53711300	     0.04061700

