53
L74.xyz
 C	    -0.75043100	     1.27634300	    -2.02637900
 C	    -0.25093100	     1.76113500	    -0.66388500
 C	    -0.03643600	     0.66711700	     0.42000600
 C	     0.18677800	     1.32180000	     1.81552700
 C	     1.45851500	     2.16248700	     1.93022200
 C	    -1.27483100	    -0.20342600	     0.48566700
 N	    -2.29990500	     0.01670900	     1.21210200
 C	    -3.31022900	    -1.00083400	     0.86124000
 C	    -4.57631100	    -0.38378300	     0.29810300
 C	    -5.80029600	    -1.04509600	     0.45449200
 C	    -6.96623600	    -0.52752500	    -0.11231900
 C	    -6.92111500	     0.66427300	    -0.83961000
 C	    -5.70444300	     1.33278800	    -0.99424600
 C	    -4.53916500	     0.81141400	    -0.42935000
 C	    -2.57569000	    -1.91935700	    -0.16294000
 O	    -1.29677600	    -1.26279600	    -0.36539000
 C	     1.16265400	    -0.19570000	     0.09838400
 N	     1.98289200	    -0.03934800	    -0.86507700
 C	     3.03237200	    -1.06397500	    -0.71696800
 C	     4.41670300	    -0.46586800	    -0.54548700
 C	     5.53826100	    -1.29883500	    -0.65813300
 C	     6.82255400	    -0.79407800	    -0.45528800
 C	     7.00294900	     0.55645600	    -0.14280700
 C	     5.89092400	     1.39323500	    -0.03723400
 C	     4.60471400	     0.88476800	    -0.23675400
 C	     2.57005700	    -1.89985800	     0.51608800
 O	     1.39275500	    -1.19701000	     0.98945000
 H	    -0.06847600	     0.53989800	    -2.45981000
 H	    -1.74624000	     0.82571400	    -1.96192400
 H	    -0.81595800	     2.12624100	    -2.71576200
 H	    -0.96535400	     2.48077600	    -0.24725900
 H	     0.69876300	     2.28608000	    -0.79653500
 H	    -0.69396700	     1.93480900	     2.02815000
 H	     0.20647300	     0.52764500	     2.56813800
 H	     1.52607500	     2.59338400	     2.93563200
 H	     1.47423800	     2.99122800	     1.21459100
 H	     2.35947500	     1.56029600	     1.76939600
 H	    -3.57003800	    -1.56972200	     1.75993500
 H	    -5.83891900	    -1.97023800	     1.02521200
 H	    -7.90949500	    -1.05095400	     0.01935600
 H	    -7.82803900	     1.07130800	    -1.27829400
 H	    -5.66206000	     2.26373700	    -1.55345700
 H	    -3.59741000	     1.33961700	    -0.53918200
 H	    -2.38318600	    -2.92302800	     0.22431800
 H	    -3.07968000	    -1.98657500	    -1.12909000
 H	     3.03634000	    -1.69392800	    -1.61339800
 H	     5.40266300	    -2.34946200	    -0.90574700
 H	     7.68231800	    -1.45270500	    -0.54543100
 H	     8.00288900	     0.95228300	     0.01246300
 H	     6.02183400	     2.44580200	     0.19999200
 H	     3.74135400	     1.53698200	    -0.16396600
 H	     2.27424700	    -2.91888400	     0.25436400
 H	     3.30121200	    -1.92426400	     1.32668200

