117
L8.xyz
 C	    -0.00234500	     0.36614700	    -1.26541400
 C	    -0.00000400	     1.24555500	     0.00003400
 C	     0.00234300	     0.36623100	     1.26554300
 C	    -1.22902800	     2.12666900	     0.03003300
 N	    -2.24907900	     2.03416200	    -0.72879400
 C	    -3.23384700	     3.00836900	    -0.21336100
 C	    -4.34335500	     2.32192900	     0.55588800
 C	    -5.23265300	     1.36270000	     0.08392200
 C	    -6.16778900	     0.78498700	     0.96013900
 C	    -7.12384400	    -0.24221000	     0.47715700
 C	    -7.49742300	    -1.31619900	     1.30530100
 C	    -8.39046900	    -2.29305200	     0.86537300
 C	    -8.81351300	    -3.48231300	     1.74058500
 C	    -8.40247900	    -4.79858800	     1.04692700
 C	    -8.16081600	    -3.44663900	     3.13150500
 C	   -10.34601100	    -3.45921000	     1.92569100
 C	    -8.90885600	    -2.17905300	    -0.43725400
 C	    -8.56163200	    -1.12828600	    -1.28963900
 C	    -9.13009500	    -0.99169700	    -2.71005900
 C	   -10.08042600	    -2.14327000	    -3.07473600
 C	    -7.96755900	    -0.98434400	    -3.72547800
 C	    -9.91240100	     0.33448700	    -2.81976900
 C	    -7.66412500	    -0.16240200	    -0.80985900
 C	    -6.17250900	     1.19848800	     2.30669700
 C	    -5.27385400	     2.15601700	     2.77781600
 C	    -4.35147900	     2.72006700	     1.89673200
 C	    -3.29978100	     3.77100400	     2.17078300
 C	    -2.46943400	     3.82017700	     0.87761900
 O	    -1.23081000	     3.06470000	     1.01788600
 C	     1.22901700	     2.12667200	    -0.03002300
 N	     2.24908900	     2.03417900	     0.72877600
 C	     3.23384800	     3.00836600	     0.21328700
 C	     4.34334300	     2.32190000	    -0.55595500
 C	     5.23264900	     1.36269000	    -0.08396900
 C	     6.16777400	     0.78494500	    -0.96017700
 C	     7.12384000	    -0.24222900	    -0.47717200
 C	     7.49743000	    -1.31623900	    -1.30528600
 C	     8.39049100	    -2.29306600	    -0.86533200
 C	     8.81354300	    -3.48235000	    -1.74050800
 C	     8.16089100	    -3.44669100	    -3.13144900
 C	     8.40246300	    -4.79860600	    -1.04683700
 C	    10.34604600	    -3.45927500	    -1.92556600
 C	     8.90888000	    -2.17902600	     0.43729100
 C	     8.56164100	    -1.12824000	     1.28964800
 C	     9.13010800	    -0.99159300	     2.71006100
 C	     9.91242000	     0.33459100	     2.81969800
 C	    10.08043000	    -2.14315700	     3.07479500
 C	     7.96757800	    -0.98417800	     3.72548700
 C	     7.66412400	    -0.16238000	     0.80984000
 C	     6.17246900	     1.19839600	    -2.30675100
 C	     5.27380400	     2.15590600	    -2.77789200
 C	     4.35144200	     2.71998700	    -1.89681500
 C	     3.29972900	     3.77090300	    -2.17089100
 C	     2.46941300	     3.82013500	    -0.87770900
 O	     1.23078200	     3.06466500	    -1.01791200
 H	    -0.02019200	     0.97607100	    -2.17184600
 H	    -0.88282900	    -0.28177400	    -1.26738200
 H	     0.89710400	    -0.25772000	    -1.27688300
 H	     0.02019100	     0.97621400	     2.17193300
 H	    -0.89710400	    -0.25763800	     1.27705500
 H	     0.88282500	    -0.28169200	     1.26755000
 H	    -3.61102900	     3.62445800	    -1.03527300
 H	    -5.18134600	     1.03467800	    -0.95008200
 H	    -7.05504200	    -1.38600900	     2.29140800
 H	    -8.87653900	    -4.90572800	     0.06553100
 H	    -7.31649800	    -4.84091000	     0.90238100
 H	    -8.69863700	    -5.66008700	     1.65806700
 H	    -7.06771200	    -3.49544800	     3.06998800
 H	    -8.49867100	    -4.30849500	     3.71814800
 H	    -8.43226600	    -2.54058000	     3.68532900
 H	   -10.87365600	    -3.52812700	     0.96864100
 H	   -10.66571300	    -2.53422000	     2.42007600
 H	   -10.66675600	    -4.30507000	     2.54612800
 H	    -9.60004300	    -2.93599800	    -0.78571100
 H	    -9.57569200	    -3.11541700	    -3.03641300
 H	   -10.94936900	    -2.18187100	    -2.40787300
 H	   -10.45240800	    -2.00232700	    -4.09593000
 H	    -8.35473300	    -0.88235800	    -4.74674300
 H	    -7.39456900	    -1.91745400	    -3.67015100
 H	    -7.27613200	    -0.15446600	    -3.54550800
 H	   -10.74565600	     0.35652600	    -2.10745700
 H	   -10.32458800	     0.45110400	    -3.82967500
 H	    -9.27377300	     1.20070600	    -2.61701500
 H	    -7.39410300	     0.67993900	    -1.43844200
 H	    -6.90444700	     0.77531000	     2.98819300
 H	    -5.29996700	     2.45809500	     3.82178400
 H	    -2.66921300	     3.53769900	     3.03547800
 H	    -3.75705900	     4.75012700	     2.36214100
 H	    -2.19300700	     4.83332000	     0.57962500
 H	     3.61104300	     3.62448700	     1.03517000
 H	     5.18135400	     1.03470600	     0.95004800
 H	     7.05504000	    -1.38609000	    -2.29138600
 H	     8.43236400	    -2.54064000	    -3.68527600
 H	     8.49875900	    -4.30855700	    -3.71806800
 H	     7.06778500	    -3.49549100	    -3.06996400
 H	     7.31647700	    -4.84090700	    -0.90232800
 H	     8.87648900	    -4.90573600	    -0.06542400
 H	     8.69862800	    -5.66012100	    -1.65795100
 H	    10.66679800	    -4.30516300	    -2.54596400
 H	    10.66577600	    -2.53430800	    -2.41997600
 H	    10.87366800	    -3.52816300	    -0.96850100
 H	     9.60008500	    -2.93594500	     0.78576500
 H	    10.32460400	     0.45126600	     3.82959900
 H	    10.74567700	     0.35658500	     2.10738800
 H	     9.27379400	     1.20080000	     2.61688800
 H	     9.57568200	    -3.11530000	     3.03652900
 H	    10.45242200	    -2.00216300	     4.09597900
 H	    10.94936800	    -2.18180700	     2.40792900
 H	     7.27614600	    -0.15431400	     3.54547200
 H	     8.35476200	    -0.88212700	     4.74674100
 H	     7.39459200	    -1.91729400	     3.67022400
 H	     7.39410700	     0.67998100	     1.43839900
 H	     6.90439800	     0.77520000	    -2.98824400
 H	     5.29990000	     2.45794100	    -3.82187300
 H	     3.75699200	     4.75002100	    -2.36231700
 H	     2.66914100	     3.53754500	    -3.03555800
 H	     2.19300400	     4.83329200	    -0.57974700

