97
L83.xyz
 C	    -0.06353400	     2.88048600	    -1.59527300
 C	    -0.02763000	     2.26504300	    -0.18575600
 C	    -0.57044200	     3.24230600	     0.89687100
 C	    -2.04745200	     3.53891100	     0.78912000
 C	    -2.95784000	     2.86686500	     1.61657500
 C	    -4.32883600	     3.10958300	     1.52282300
 C	    -4.81488500	     4.03533600	     0.59724700
 C	    -3.91808300	     4.72310600	    -0.22361400
 C	    -2.54633600	     4.48056200	    -0.12273500
 C	     1.39344400	     1.87306500	     0.17082900
 N	     2.00271800	     2.10264200	     1.26084100
 C	     3.26183200	     1.34591500	     1.23413300
 C	     3.33991400	     0.39368600	     2.40582200
 C	     4.55563200	     0.19273600	     3.06464300
 C	     4.65839900	    -0.74232200	     4.09695200
 C	     3.53803400	    -1.48066600	     4.48198700
 C	     2.31486600	    -1.26972600	     3.83848800
 C	     2.21397600	    -0.33638200	     2.80798900
 C	     3.27255600	     0.64437500	    -0.20571700
 C	     4.39557500	     1.14732800	    -1.10226000
 C	     5.68957700	     1.33646000	    -0.60184400
 C	     6.72443100	     1.74380000	    -1.44588000
 C	     6.47764900	     1.97224300	    -2.80024400
 C	     5.18932500	     1.78345200	    -3.30564000
 C	     4.15719100	     1.36792800	    -2.46435800
 C	     3.23773300	    -0.88209800	    -0.17790200
 C	     2.07778000	    -1.57910600	    -0.53035400
 C	     2.03946300	    -2.97406800	    -0.46572700
 C	     3.15857900	    -3.68897300	    -0.04095500
 C	     4.32412000	    -2.99866800	     0.30245500
 C	     4.36589300	    -1.60818700	     0.22557700
 O	     2.00484900	     1.09726700	    -0.76358500
 C	    -0.78512800	     0.94108200	    -0.12912800
 N	    -0.97016000	     0.24579900	     0.92183300
 C	    -1.56566400	    -1.03318900	     0.50151100
 C	    -2.66788200	    -1.51479100	     1.41347100
 C	    -3.72816700	    -0.67952700	     1.78846700
 C	    -4.74687200	    -1.15523700	     2.61149800
 C	    -4.72014700	    -2.47380500	     3.07568800
 C	    -3.66115900	    -3.30920000	     2.71861200
 C	    -2.63967500	    -2.82776800	     1.89605500
 C	    -1.94306800	    -0.79536800	    -1.03261400
 C	    -3.42599300	    -0.52809700	    -1.28047800
 C	    -4.33226200	    -1.59039300	    -1.39468400
 C	    -5.69785300	    -1.34906300	    -1.53339100
 C	    -6.18150400	    -0.03929000	    -1.56953700
 C	    -5.28443700	     1.02365600	    -1.46907000
 C	    -3.91671900	     0.78222600	    -1.32477900
 C	    -1.38456600	    -1.87892300	    -1.93979200
 C	    -0.74295300	    -1.54289200	    -3.13741500
 C	    -0.23428100	    -2.53945200	    -3.97148800
 C	    -0.37427500	    -3.88550500	    -3.62920100
 C	    -1.02261100	    -4.22834300	    -2.44143800
 C	    -1.51701300	    -3.23155700	    -1.59851000
 O	    -1.22206100	     0.44502200	    -1.31315100
 H	    -1.08963600	     3.09770500	    -1.89685400
 H	     0.50688000	     3.81474400	    -1.59665400
 H	     0.37449100	     2.20531600	    -2.33183800
 H	     0.01313400	     4.16515300	     0.81273700
 H	    -0.35228000	     2.81079000	     1.87511600
 H	    -2.58232900	     2.14479400	     2.33435700
 H	    -5.01648500	     2.57600700	     2.17343900
 H	    -5.88188700	     4.22642400	     0.52272600
 H	    -4.28441600	     5.45653600	    -0.93696000
 H	    -1.85631700	     5.03747800	    -0.75023500
 H	     4.09697500	     2.04740200	     1.29375400
 H	     5.42841700	     0.76756500	     2.76361500
 H	     5.61036000	    -0.89123500	     4.59955300
 H	     3.61464200	    -2.21089200	     5.28310700
 H	     1.43639300	    -1.83428000	     4.13967700
 H	     1.25934000	    -0.17023400	     2.31694600
 H	     5.89983900	     1.16622000	     0.44967900
 H	     7.72209900	     1.88682500	    -1.04004200
 H	     7.28143400	     2.29491300	    -3.45606200
 H	     4.98566900	     1.95802100	    -4.35865500
 H	     3.15997900	     1.21842900	    -2.86295200
 H	     1.20596000	    -1.03711400	    -0.86926700
 H	     1.13138200	    -3.49356400	    -0.75522200
 H	     3.12825200	    -4.77367500	     0.01556800
 H	     5.20587400	    -3.54319400	     0.62906700
 H	     5.27970100	    -1.08922600	     0.49103300
 H	    -0.76167100	    -1.77601600	     0.52944700
 H	    -3.76064300	     0.33926800	     1.42428200
 H	    -5.56570700	    -0.49666300	     2.88859500
 H	    -5.51663500	    -2.84401400	     3.71544200
 H	    -3.62371100	    -4.33198600	     3.08356500
 H	    -1.80803000	    -3.47626900	     1.63165700
 H	    -3.97749100	    -2.61397000	    -1.36664900
 H	    -6.38390000	    -2.18782800	    -1.61325800
 H	    -7.24609000	     0.14914900	    -1.67779400
 H	    -5.64159100	     2.04860200	    -1.49568400
 H	    -3.23860500	     1.62141700	    -1.23929100
 H	    -0.62887400	    -0.49990100	    -3.40916000
 H	     0.27312000	    -2.26052200	    -4.89084200
 H	     0.02096600	    -4.66005100	    -4.28029200
 H	    -1.13629300	    -5.27189800	    -2.16129100
 H	    -2.00474200	    -3.51295800	    -0.67137300

