87
L85.xyz
 C	    -3.58447100	     3.90085700	     2.51715000
 C	    -3.37794300	     2.52687300	     2.66014700
 C	    -2.16320300	     1.95422400	     2.27981600
 C	    -1.13584400	     2.73836100	     1.73463500
 C	     0.18697500	     2.12688000	     1.32875600
 C	     0.22941500	     1.42152300	    -0.05606600
 C	    -0.15203800	     2.36134300	    -1.24433200
 C	     0.75140400	     3.55708000	    -1.45597400
 C	     0.25943000	     4.85724600	    -1.28153800
 C	     1.07439900	     5.97232900	    -1.48865600
 C	     2.40244800	     5.80494500	    -1.88318400
 C	     2.89859800	     4.51561400	    -2.09017000
 C	     2.07906100	     3.40533000	    -1.88634100
 C	    -0.65130200	     0.17370300	    -0.08379200
 N	    -0.81059600	    -0.63552400	     0.89011200
 C	    -1.62565100	    -1.76696900	     0.39648900
 C	    -2.96385400	    -1.85877200	     1.09577200
 C	    -3.35768200	    -3.05949600	     1.69320800
 C	    -4.60337100	    -3.17209700	     2.31577400
 C	    -5.47019800	    -2.07893700	     2.34386500
 C	    -5.08525400	    -0.87513600	     1.74601300
 C	    -3.84169000	    -0.76730700	     1.12585800
 C	    -1.67989800	    -1.51593400	    -1.15949100
 C	    -3.01032900	    -1.68685400	    -1.83628400
 C	    -3.48785400	    -2.98528900	    -2.05307600
 C	    -4.74445500	    -3.18991000	    -2.62072800
 C	    -5.53400700	    -2.09648200	    -2.98740300
 C	    -5.05616200	    -0.80109700	    -2.78359700
 C	    -3.80040100	    -0.59577800	    -2.20835800
 O	    -1.19930200	    -0.15011800	    -1.28256200
 C	     1.62919200	     0.86448400	    -0.25580100
 N	     2.63040900	     1.01440400	     0.51329200
 C	     3.75923600	     0.29085400	    -0.09562900
 C	     4.52845400	    -0.55357600	     0.89240200
 C	     5.85114500	    -0.91290700	     0.61023200
 C	     6.55873500	    -1.75032900	     1.47347200
 C	     5.94994900	    -2.23186700	     2.63490700
 C	     4.63297500	    -1.86928300	     2.92585400
 C	     3.92533700	    -1.03650600	     2.05795800
 C	     3.09802000	    -0.52091300	    -1.28033200
 C	     2.94916200	    -2.00503800	    -1.07526500
 C	     1.98452700	    -2.52209800	    -0.19992000
 C	     1.89179100	    -3.89730800	     0.01017700
 C	     2.76511600	    -4.77074700	    -0.64434700
 C	     3.73153500	    -4.26002800	    -1.51213900
 C	     3.81911100	    -2.88303100	    -1.72771400
 O	     1.77976000	     0.09780800	    -1.37377400
 C	    -1.34446900	     4.12036400	     1.62808800
 C	    -2.55739800	     4.69847800	     2.00841300
 H	    -4.52964400	     4.34752800	     2.81404500
 H	    -4.15890200	     1.89561000	     3.07579100
 H	    -2.00271900	     0.89090100	     2.40943600
 H	     0.49817900	     1.39210900	     2.07498900
 H	     0.95671500	     2.90214600	     1.30827900
 H	    -1.17662200	     2.70327000	    -1.07240500
 H	    -0.16723000	     1.75368700	    -2.15182100
 H	    -0.77667600	     4.99609700	    -0.98932100
 H	     0.66824200	     6.97011400	    -1.34537800
 H	     3.04096300	     6.66959800	    -2.04193500
 H	     3.92391700	     4.37273200	    -2.42096800
 H	     2.47003400	     2.41456100	    -2.09169800
 H	    -1.07689600	    -2.69354900	     0.58261800
 H	    -2.68369700	    -3.91265400	     1.67104500
 H	    -4.89347600	    -4.11160800	     2.77829200
 H	    -6.43981800	    -2.16280700	     2.82696200
 H	    -5.75616800	    -0.02048500	     1.75797800
 H	    -3.55313000	     0.17040900	     0.66516600
 H	    -0.92709400	    -2.14912500	    -1.63988600
 H	    -2.87515800	    -3.83736200	    -1.76851500
 H	    -5.10635800	    -4.20209000	    -2.77907400
 H	    -6.51263300	    -2.25463500	    -3.43201300
 H	    -5.66148100	     0.05462500	    -3.07022400
 H	    -3.43046500	     0.41108400	    -2.04900100
 H	     4.44097400	     1.03347100	    -0.52774100
 H	     6.32777100	    -0.53668200	    -0.29214400
 H	     7.58506700	    -2.02237800	     1.24198900
 H	     6.49983600	    -2.88169200	     3.31024900
 H	     4.15380000	    -2.23657700	     3.82946200
 H	     2.90267400	    -0.75184800	     2.28288800
 H	     3.61614800	    -0.32036500	    -2.21896500
 H	     1.31061800	    -1.85311900	     0.32364800
 H	     1.14252800	    -4.28727600	     0.69402200
 H	     2.69264100	    -5.84187800	    -0.47734200
 H	     4.41359600	    -4.93150300	    -2.02634200
 H	     4.56894800	    -2.48641100	    -2.40779500
 H	    -0.54296600	     4.74902400	     1.25487700
 H	    -2.69511300	     5.77258900	     1.91460700

