111
L86.xyz
 C	    -6.79484300	    -0.55512100	     3.83960900
 C	    -6.15621400	    -1.67361300	     2.98803900
 C	    -6.91985800	    -1.79300600	     1.65304600
 C	    -6.30404200	    -3.00174700	     3.74712600
 C	    -4.68818100	    -1.31939800	     2.71235400
 C	    -3.62010900	    -2.12084500	     3.13629100
 C	    -2.29304800	    -1.74932400	     2.90722900
 C	    -1.97828100	    -0.56283500	     2.23725700
 C	    -0.54915000	    -0.13472700	     2.00229600
 C	     0.09941500	    -0.70389100	     0.69829200
 C	     0.20655700	    -2.26814800	     0.76107200
 C	     1.40152300	    -2.83615200	     0.02873500
 C	     2.56981400	    -3.13544000	     0.73568800
 C	     3.72940200	    -3.55653600	     0.07937900
 C	     3.76298600	    -3.69950100	    -1.31310600
 C	     5.02480100	    -4.11798300	    -2.07902600
 C	     6.21530600	    -4.38069900	    -1.14330800
 C	     4.74103800	    -5.40787600	    -2.87738000
 C	     5.41663100	    -2.98835700	    -3.05596200
 C	     2.57499700	    -3.42670000	    -2.01360300
 C	     1.41962900	    -3.00418200	    -1.36238500
 C	    -0.67350100	    -0.24501700	    -0.51826100
 N	    -1.08373200	    -0.96456800	    -1.48572600
 C	    -1.70875100	    -0.06238100	    -2.46902900
 C	    -3.19848200	    -0.29612000	    -2.60689600
 C	    -3.93523800	    -0.96022700	    -1.62215100
 C	    -5.31750000	    -1.11140800	    -1.75673800
 C	    -5.97738000	    -0.59412800	    -2.87234400
 C	    -5.24549900	     0.06717900	    -3.86277500
 C	    -3.86523000	     0.20797200	    -3.73150200
 C	    -1.27871300	     1.36734100	    -1.96028500
 O	    -0.89900200	     1.09867400	    -0.57867100
 C	     1.48944900	    -0.12127000	     0.54861000
 N	     1.99756200	     0.30864700	    -0.53717800
 C	     3.34309000	     0.80784200	    -0.22030100
 C	     3.42156700	     2.31396400	    -0.37677100
 C	     2.27405200	     3.11193500	    -0.31026500
 C	     2.37525400	     4.50277700	    -0.38661500
 C	     3.62409500	     5.11085100	    -0.52508000
 C	     4.77319000	     4.31872900	    -0.59877200
 C	     4.66954600	     2.92986000	    -0.53089700
 C	     3.59015000	     0.27841900	     1.24923000
 O	     2.24997600	    -0.10662200	     1.67447800
 C	    -3.04292500	     0.24165200	     1.80891400
 C	    -4.36552800	    -0.12973300	     2.03714400
 H	    -7.84431300	    -0.79218600	     4.05330400
 H	    -6.76825700	     0.41126700	     3.32520700
 H	    -6.26957200	    -0.44289100	     4.79537400
 H	    -7.97644200	    -2.02245000	     1.83838000
 H	    -6.50147100	    -2.59723800	     1.03677400
 H	    -6.87509100	    -0.86422900	     1.07552400
 H	    -7.36644000	    -3.21171000	     3.91524900
 H	    -5.81362500	    -2.96826600	     4.72664400
 H	    -5.88484800	    -3.84229100	     3.18233100
 H	    -3.80960300	    -3.04563300	     3.66921900
 H	    -1.49489300	    -2.38782000	     3.27596700
 H	    -0.49958200	     0.95717200	     1.95877600
 H	     0.08234400	    -0.45464600	     2.83484500
 H	    -0.72922000	    -2.68195600	     0.37933900
 H	     0.28467100	    -2.54615100	     1.81465700
 H	     2.58360200	    -3.01899400	     1.81639700
 H	     4.61075000	    -3.76999100	     0.67385700
 H	     6.00641600	    -5.19145400	    -0.43597100
 H	     7.09044200	    -4.67321900	    -1.73466200
 H	     6.48678900	    -3.48727600	    -0.56919600
 H	     4.45964500	    -6.22853500	    -2.20694600
 H	     3.92843800	    -5.26856800	    -3.59802200
 H	     5.63428700	    -5.71497700	    -3.43519900
 H	     5.62332800	    -2.05775500	    -2.51359800
 H	     4.62023000	    -2.78461300	    -3.77938100
 H	     6.31843000	    -3.26337700	    -3.61687500
 H	     2.55196800	    -3.53406200	    -3.09436500
 H	     0.52682400	    -2.77054200	    -1.93261800
 H	    -1.24231100	    -0.22638900	    -3.44471300
 H	    -3.42751200	    -1.35865000	    -0.75090300
 H	    -5.87631000	    -1.63337900	    -0.98690300
 H	    -7.05325200	    -0.70933000	    -2.97326300
 H	    -5.74920900	     0.47003900	    -4.73737400
 H	    -3.29837300	     0.72722900	    -4.50028300
 H	     4.07597700	     0.34057500	    -0.88426300
 H	     1.30135300	     2.64181200	    -0.20764900
 H	     1.47531000	     5.11029800	    -0.33713000
 H	     3.70283200	     6.19325300	    -0.58024700
 H	     5.74935100	     4.78270900	    -0.71209600
 H	     5.56562500	     2.31682700	    -0.58510900
 H	    -2.82724500	     1.17746500	     1.30437100
 H	    -5.15736500	     0.52901000	     1.69224600
 C	     4.20587600	     1.23703300	     2.22339000
 C	     3.44331600	     2.22887100	     2.85150300
 C	     5.58601100	     1.19124100	     2.44428500
 C	     4.05716100	     3.16586300	     3.68110700
 H	     2.37181400	     2.26523300	     2.68697900
 C	     6.20262100	     2.13394200	     3.26904500
 H	     6.17931500	     0.41751000	     1.96269400
 C	     5.43884600	     3.12483000	     3.88843800
 H	     3.45691200	     3.93231100	     4.16369900
 H	     7.27608900	     2.09015500	     3.43137500
 H	     5.91551500	     3.85856000	     4.53258700
 C	    -2.26787400	     2.49030600	    -2.04572800
 C	    -2.04393700	     3.52554300	    -2.95910000
 C	    -3.43508900	     2.50766900	    -1.26957900
 C	    -2.97242600	     4.55888400	    -3.10541700
 H	    -1.13738300	     3.52091500	    -3.55915000
 C	    -4.35677000	     3.54314800	    -1.40616300
 H	    -3.62966600	     1.70142500	    -0.57327800
 C	    -4.13041200	     4.57074800	    -2.32710700
 H	    -2.78593600	     5.35512400	    -3.82075600
 H	    -5.25761500	     3.54436700	    -0.79863600
 H	    -4.85289900	     5.37506400	    -2.43532000
 H	    -0.35412800	     1.64755300	    -2.47387100
 H	     4.17567100	    -0.64368000	     1.19667200

