54
L91.xyz
 C	    -3.34382800	     1.53233800	     0.91297100
 C	    -4.23377800	     0.29368100	     1.06636600
 C	    -4.76587900	    -0.36721400	    -0.22170700
 C	    -5.65952400	     0.56629200	    -1.04699700
 C	    -3.68662000	    -1.01824800	    -1.11956100
 C	    -2.71423100	    -0.06229200	    -1.85975300
 O	    -1.42337700	    -0.35454300	    -1.26225900
 C	    -1.60522700	    -1.43246900	    -0.45306600
 C	    -0.41053900	    -1.97600200	     0.22331700
 C	    -0.63271200	    -3.10097700	     1.03582200
 C	     0.40582800	    -3.71188000	     1.72648800
 C	     1.69533800	    -3.19215100	     1.61427500
 C	     1.92787500	    -2.07197100	     0.81830500
 C	     0.89680900	    -1.43417400	     0.10768300
 P	     1.29516000	     0.02650200	    -0.98307300
 C	     3.11211400	     0.22095600	    -0.69192300
 C	     3.68583200	     1.04632700	     0.28644000
 C	     5.07358400	     1.15294200	     0.40080500
 C	     5.90865500	     0.43174100	    -0.45508600
 C	     5.34954800	    -0.39175800	    -1.43560900
 C	     3.96332900	    -0.48580900	    -1.55880300
 C	     0.61371300	     1.41363500	     0.02535600
 C	     0.47073400	     1.35636900	     1.41981600
 C	    -0.02240200	     2.45388600	     2.12746300
 C	    -0.38521400	     3.62072100	     1.45034400
 C	    -0.25456900	     3.68453600	     0.06129300
 C	     0.24126200	     2.58742800	    -0.64537500
 N	    -2.79563400	    -1.89024100	    -0.33440700
 H	    -3.82611500	     2.31606700	     0.31704100
 H	    -2.38148400	     1.29786000	     0.45171700
 H	    -3.12840800	     1.96030500	     1.89834400
 H	    -5.10968900	     0.56412600	     1.67205300
 H	    -3.68698700	    -0.46500800	     1.63896400
 H	    -5.39197700	    -1.20561700	     0.11392800
 H	    -6.09659100	     0.03769300	    -1.90326500
 H	    -6.48359600	     0.95195200	    -0.43522700
 H	    -5.10928600	     1.42966600	    -1.43756600
 H	    -4.21873500	    -1.63360600	    -1.85462100
 H	    -2.91178700	     1.00033200	    -1.72285300
 H	    -2.64030200	    -0.28048900	    -2.92853000
 H	    -1.64442900	    -3.48419800	     1.10849100
 H	     0.20981300	    -4.58244300	     2.34538700
 H	     2.52245800	    -3.65100800	     2.14895500
 H	     2.93615400	    -1.68184400	     0.75571200
 H	     3.05030700	     1.60783900	     0.96297500
 H	     5.50223400	     1.79920300	     1.16235100
 H	     6.98810200	     0.51518900	    -0.36288700
 H	     5.99198100	    -0.95184600	    -2.10978800
 H	     3.53430600	    -1.11767200	    -2.33336600
 H	     0.74862200	     0.45347000	     1.95477000
 H	    -0.12643500	     2.39613400	     3.20770700
 H	    -0.77328900	     4.47285200	     2.00150100
 H	    -0.54101300	     4.58663400	    -0.47265900
 H	     0.33462000	     2.63948200	    -1.72730500

