53
L94.xyz
 C	    -1.37996700	     1.23742400	    -0.42643900
 C	     0.04401400	     1.48837600	    -0.01121100
 C	     0.22422000	     1.66650300	     1.52152600
 C	     1.61324600	     2.31625800	     1.64545300
 C	     1.78072700	     3.18603700	     0.36764200
 C	     0.57882700	     2.84282300	    -0.54467800
 C	     0.90970800	     0.34659600	    -0.48946000
 N	     1.81223000	     0.41168300	    -1.38876300
 C	     2.48146200	    -0.90510800	    -1.39479800
 C	     3.82206100	    -0.83702000	    -0.69232700
 C	     4.91736000	    -0.03846300	    -1.01760300
 C	     6.04978600	    -0.07951300	    -0.19967900
 C	     6.07753300	    -0.90782300	     0.92884100
 C	     4.97503700	    -1.70367100	     1.25379600
 C	     3.84454000	    -1.66356900	     0.43715300
 C	     2.55280900	    -2.43804700	     0.57971000
 C	     1.61603000	    -1.80181000	    -0.45843400
 O	     0.72879700	    -0.83097800	     0.16676900
 N	    -1.77099100	     0.37717100	    -1.28447400
 C	    -3.24378400	     0.47757500	    -1.33049900
 C	    -3.59241400	     1.71681900	    -0.44913700
 C	    -4.61343700	     1.27013300	     0.61040100
 C	    -4.64050300	    -0.23788300	     0.49313000
 C	    -3.90550900	    -0.67978900	    -0.61240400
 C	    -3.80822300	    -2.03763700	    -0.91150600
 C	    -4.46494800	    -2.95888400	    -0.09150500
 C	    -5.20467300	    -2.52033200	     1.01354300
 C	    -5.29613700	    -1.15779500	     1.31205200
 O	    -2.30851800	     2.04296000	     0.15996200
 H	     0.12985700	     0.72329800	     2.06454000
 H	    -0.55612600	     2.34523700	     1.87717000
 H	     2.38604000	     1.54033100	     1.67763500
 H	     1.70356600	     2.89857900	     2.56765700
 H	     2.72263600	     2.94925400	    -0.13488200
 H	     1.79377700	     4.25509300	     0.60207100
 H	    -0.21740600	     3.58495800	    -0.43181800
 H	     0.84253600	     2.78048900	    -1.60211900
 H	     2.55773900	    -1.28253800	    -2.41891800
 H	     4.88508200	     0.61334100	    -1.88648800
 H	     6.91185500	     0.53763500	    -0.43782200
 H	     6.96205900	    -0.92915300	     1.55985700
 H	     4.99880600	    -2.34119000	     2.13415000
 H	     2.12322100	    -2.38382300	     1.58564600
 H	     2.70154500	    -3.50092400	     0.35042100
 H	     0.98417900	    -2.52545400	    -0.97705000
 H	    -3.57596100	     0.57186900	    -2.36904200
 H	    -3.91078100	     2.59738500	    -1.01015300
 H	    -4.32383200	     1.61988000	     1.60716500
 H	    -5.59789800	     1.70274000	     0.39224200
 H	    -3.22172900	    -2.37306800	    -1.76264700
 H	    -4.39868500	    -4.02132700	    -0.30969200
 H	    -5.70964800	    -3.24553900	     1.64607900
 H	    -5.86831600	    -0.82210000	     2.17341200

