56
L95.xyz
 C	     0.90155200	     0.17112000	    -0.57850100
 C	     0.08776200	     1.39018900	    -0.21339500
 C	     0.54975600	     2.62700000	    -1.03954300
 C	     1.75513900	     3.30509100	    -0.38445700
 C	     1.38014300	     3.91172300	     0.98690800
 C	     0.21786000	     3.14742800	     1.65484800
 C	     0.27194300	     1.65455100	     1.32266300
 C	    -1.35654700	     1.10578200	    -0.55177600
 N	    -1.77056100	     0.23892000	    -1.39127300
 C	    -3.24588900	     0.30673400	    -1.36545700
 C	    -3.84222800	    -0.86554800	    -0.61498400
 C	    -3.72724500	    -2.22093300	    -0.91912000
 C	    -4.31533200	    -3.15731100	    -0.06487900
 C	    -5.00484000	    -2.73608600	     1.07872000
 C	    -5.11454300	    -1.37587100	     1.38168600
 C	    -4.52760400	    -0.44085800	     0.52847500
 C	    -4.53235000	     1.06751800	     0.64385900
 C	    -3.57843200	     1.53773300	    -0.46651100
 O	    -2.27285300	     1.89376700	     0.07671000
 N	     1.81044600	     0.09847300	    -1.47085100
 C	     2.41465900	    -1.24261200	    -1.33166100
 C	     1.49577100	    -1.99686300	    -0.32383400
 C	     2.38948800	    -2.57776300	     0.78232300
 C	     3.71952400	    -1.88420500	     0.58549400
 C	     3.74890200	    -1.16992600	    -0.61785300
 C	     4.88540800	    -0.46022500	    -1.00199000
 C	     6.00666700	    -0.47764400	    -0.16798900
 C	     5.98249900	    -1.19419900	     1.03471400
 C	     4.83892800	    -1.90114800	     1.41803300
 O	     0.65873600	    -0.92399200	     0.19246800
 H	    -0.28309600	     3.33647700	    -1.10092300
 H	     0.77939900	     2.30176000	    -2.05674700
 H	     2.15247000	     4.08004700	    -1.04983400
 H	     2.55007000	     2.55913800	    -0.26822300
 H	     1.09658400	     4.96463500	     0.86713700
 H	     2.25992500	     3.89762500	     1.64206100
 H	     0.25234600	     3.28109300	     2.74246500
 H	    -0.74421000	     3.55053700	     1.32176300
 H	     1.24732700	     1.25707400	     1.62537400
 H	    -0.48108700	     1.09478400	     1.88371600
 H	    -3.63116200	     0.39279900	    -2.38617500
 H	    -3.17889500	    -2.54266800	    -1.80043800
 H	    -4.23413500	    -4.21805800	    -0.28629200
 H	    -5.45618900	    -3.47290000	     1.73781700
 H	    -5.64771500	    -1.05354100	     2.27266900
 H	    -4.20092300	     1.42628900	     1.62426000
 H	    -5.53730700	     1.47483200	     0.47628000
 H	    -3.94509600	     2.41080600	    -1.00934200
 H	     2.48390200	    -1.72573000	    -2.31090300
 H	     0.82938200	    -2.73307900	    -0.77773000
 H	     1.95375800	    -2.40865300	     1.77275600
 H	     2.48699000	    -3.66347500	     0.65501800
 H	     4.89330800	     0.10659500	    -1.92907800
 H	     6.90039400	     0.07170900	    -0.45129000
 H	     6.85893400	    -1.19804900	     1.67729400
 H	     4.82282900	    -2.45206500	     2.35517700

