46
L98.xyz
 C	     0.28406500	     2.23435300	    -0.05162300
 C	    -0.00319900	     0.80595800	    -0.53667800
 C	     1.19029800	    -0.08444600	    -0.31778100
 N	     1.95704100	    -0.54620300	    -1.22584700
 C	     3.05286100	    -1.24486400	    -0.51946200
 C	     4.34054000	    -0.44902300	    -0.55526500
 C	     5.07632500	    -0.06544800	    -1.67538900
 C	     6.22461400	     0.71033900	    -1.49642900
 C	     6.62393600	     1.09648700	    -0.21109600
 C	     5.88169700	     0.71171600	     0.90914700
 C	     4.73524200	    -0.06322700	     0.73058100
 C	     3.79879300	    -0.60826900	     1.78607800
 C	     2.64111200	    -1.22836600	     0.98595600
 O	     1.47315000	    -0.35579300	     0.98500200
 C	    -1.22266100	     0.21807600	     0.12294800
 N	    -1.99644700	     0.80616000	     0.94732600
 C	    -3.08812700	    -0.14765900	     1.23748200
 C	    -2.66434000	    -1.47513500	     0.53532000
 C	    -3.81907800	    -1.91374500	    -0.38062600
 C	    -4.76210600	    -0.73093500	    -0.38875200
 C	    -4.37476600	     0.24098200	     0.54042200
 C	    -5.11593800	     1.40988600	     0.70571200
 C	    -6.26302200	     1.59778800	    -0.06976200
 C	    -6.65563700	     0.62613400	    -0.99842900
 C	    -5.90761300	    -0.54320700	    -1.16296000
 O	    -1.49982100	    -1.06430300	    -0.23990200
 H	    -0.57134100	     2.88187200	    -0.26108600
 H	     0.47262100	     2.24984800	     1.02495300
 H	     1.16292600	     2.63011800	    -0.56981700
 H	    -0.18257600	     0.81115000	    -1.61738000
 H	     3.17132600	    -2.25247600	    -0.92981400
 H	     4.75564500	    -0.35768300	    -2.67176000
 H	     6.80907600	     1.01870800	    -2.35899800
 H	     7.51745000	     1.70171600	    -0.08346800
 H	     6.19388300	     1.01568900	     1.90521500
 H	     3.43155900	     0.16018400	     2.47488200
 H	     4.29203600	    -1.37577900	     2.39547800
 H	     2.31567500	    -2.19387700	     1.37713000
 H	    -3.21147600	    -0.24530200	     2.32051300
 H	    -2.33202500	    -2.26130800	     1.21569400
 H	    -3.45093200	    -2.17893200	    -1.37754700
 H	    -4.30766500	    -2.80687400	     0.02855400
 H	    -4.80004600	     2.16612700	     1.41931000
 H	    -6.85173100	     2.50378400	     0.04545300
 H	    -7.54844800	     0.78337500	    -1.59770700
 H	    -6.21472700	    -1.29365000	    -1.88712700

