59
L99.xyz
 C	    -1.17187600	     0.99321200	    -0.66848600
 C	    -2.10534700	    -0.00008700	    -0.00000800
 C	    -2.94518700	    -0.70304200	    -1.09731100
 C	    -4.20336900	    -1.43532000	    -0.60344800
 C	    -5.44904200	    -0.53815000	    -0.54640200
 C	    -5.44905400	     0.53804700	     0.54644000
 C	    -4.20335400	     1.43517300	     0.60348900
 C	    -2.94522500	     0.70279700	     1.09734500
 C	    -1.17177200	    -0.99333000	     0.66843700
 N	    -1.02759800	    -2.22963100	     0.39236000
 C	     0.13188400	    -2.69035000	     1.18660000
 C	     1.37350500	    -2.77620100	     0.32070900
 C	     1.56054200	    -3.53951500	    -0.83041100
 C	     2.76724800	    -3.42876800	    -1.52638400
 C	     3.77048400	    -2.56489600	    -1.06968300
 C	     3.57745200	    -1.79965800	     0.08444300
 C	     2.36961300	    -1.90444300	     0.77479100
 C	     1.93964700	    -1.17581000	     2.02762400
 C	     0.44814200	    -1.51749100	     2.16359700
 O	    -0.37712100	    -0.44323200	     1.62858200
 N	    -1.02776700	     2.22951100	    -0.39239300
 C	     0.13165700	     2.69032200	    -1.18665500
 C	     0.44802800	     1.51748800	    -2.16362600
 C	     1.93955500	     1.17588700	    -2.02759500
 C	     2.36947400	     1.90463300	    -0.77481300
 C	     1.37328900	     2.77631300	    -0.32075500
 C	     1.56022100	     3.53959300	     0.83040100
 C	     2.76690600	     3.42889500	     1.52643100
 C	     3.77022300	     2.56511800	     1.06974000
 C	     3.57728900	     1.79990200	    -0.08442000
 O	    -0.37718800	     0.44316000	    -1.62864100
 H	    -3.24629400	     0.05229000	    -1.83264100
 H	    -2.28458000	    -1.39850700	    -1.61824700
 H	    -4.40864600	    -2.25792900	    -1.29972300
 H	    -4.01627900	    -1.90387900	     0.37106500
 H	    -5.56275000	    -0.05387000	    -1.52744700
 H	    -6.33919000	    -1.16740400	    -0.41126400
 H	    -6.33918900	     1.16731000	     0.41126700
 H	    -5.56279900	     0.05378000	     1.52748700
 H	    -4.40858300	     2.25781000	     1.29974700
 H	    -4.01622800	     1.90369800	    -0.37103400
 H	    -2.28462800	     1.39816900	     1.61841300
 H	    -3.24640900	    -0.05261600	     1.83256000
 H	    -0.10265000	    -3.63352500	     1.68893700
 H	     0.77372400	    -4.19804300	    -1.18813000
 H	     2.92755100	    -4.01345900	    -2.42813300
 H	     4.70560800	    -2.48701500	    -1.61789400
 H	     4.35591100	    -1.12826100	     0.43519600
 H	     2.09484000	    -0.09348700	     1.96919400
 H	     2.49004700	    -1.53528900	     2.90644100
 H	     0.13186200	    -1.68414400	     3.19534400
 H	    -0.10297300	     3.63346300	    -1.68900600
 H	     0.13178100	     1.68409700	    -3.19539000
 H	     2.48993800	     1.53529400	    -2.90645100
 H	     2.09478300	     0.09357500	    -1.96905200
 H	     0.77334600	     4.19805200	     1.18811800
 H	     2.92711400	     4.01355400	     2.42821700
 H	     4.70532800	     2.48727600	     1.61799000
 H	     4.35580300	     1.12855500	    -0.43515100

